file 1292400 1675250065                                         
version 2
run Default-0-20230201-08:12:24-27169
attr configname Default
attr datetime 20230201-08:12:24
attr experiment Default
attr inifile omnetpp.ini
attr iterationvars ""
attr iterationvarsf ""
attr measurement ""
attr network RSUExampleScenario
attr processid 27169
attr repetition 0
attr replication #0
attr resultdir results
attr runnumber 0
attr seedset 0
param *.playgroundSizeX 500m
param *.playgroundSizeY 500m
param *.playgroundSizeZ 50m
param *.annotations.draw true
param *.manager.updateInterval 1s
param *.manager.host "\"localhost\""
param *.manager.port 9999
param *.manager.autoShutdown true
param *.manager.launchConfig "xmldoc(\"manhattan.launchd.xml\")"
param *.rsu[0].mobility.x 250
param *.rsu[0].mobility.y 250
param *.rsu[0].mobility.z 3
param *.rsu[*].applType "\"LeaderApp\""
param *.rsu[*].appl.headerLength "80 bit"
param *.rsu[*].appl.windowTime 15.0
param *.rsu[*].appl.fileName "\"betweenness_manhatan_dbscan_modificado_1_lider\""
param *.rsu[*].appl.strategy "\"betweenness\""
param *.rsu[*].appl.sendBeacons true
param *.rsu[*].appl.dataOnSch false
param *.rsu[*].appl.beaconInterval 1s
param *.rsu[*].appl.beaconUserPriority 7
param *.rsu[*].appl.dataUserPriority 5
param *.connectionManager.sendDirect true
param *.connectionManager.maxInterfDist 2600m
param *.**.nic.mac1609_4.useServiceChannel false
param *.**.nic.mac1609_4.txPower 200mW
param *.**.nic.mac1609_4.bitrate 6Mbps
param *.**.nic.phy80211p.minPowerLevel -110dBm
param *.**.nic.phy80211p.useNoiseFloor true
param *.**.nic.phy80211p.noiseFloor -98dBm
param *.**.nic.phy80211p.decider "xmldoc(\"config.xml\")"
param *.**.nic.phy80211p.analogueModels "xmldoc(\"config.xml\")"
param *.**.nic.phy80211p.usePropagationDelay true
param *.node[*].applType "\"BeaconApp\""
param *.node[*].appl.headerLength "80 bit"
param *.node[*].appl.windowTime 5.0
param *.node[*].appl.sendBeacons true
param *.node[*].appl.dataOnSch false
param *.node[*].appl.beaconInterval 1s
param *.node[*].veinsmobility.x 0
param *.node[*].veinsmobility.y 0
param *.node[*].veinsmobility.z 0

vector 0 RSUExampleScenario.node[0].veinsmobility posx ETV
vector 1 RSUExampleScenario.node[0].veinsmobility posy ETV
vector 2 RSUExampleScenario.node[1].veinsmobility posx ETV
vector 3 RSUExampleScenario.node[1].veinsmobility posy ETV
vector 4 RSUExampleScenario.node[2].veinsmobility posx ETV
vector 5 RSUExampleScenario.node[2].veinsmobility posy ETV
vector 6 RSUExampleScenario.node[3].veinsmobility posx ETV
vector 7 RSUExampleScenario.node[3].veinsmobility posy ETV
vector 8 RSUExampleScenario.node[4].veinsmobility posx ETV
vector 9 RSUExampleScenario.node[4].veinsmobility posy ETV
vector 10 RSUExampleScenario.node[5].veinsmobility posx ETV
vector 11 RSUExampleScenario.node[5].veinsmobility posy ETV
vector 12 RSUExampleScenario.node[6].veinsmobility posx ETV
vector 13 RSUExampleScenario.node[6].veinsmobility posy ETV
vector 14 RSUExampleScenario.node[7].veinsmobility posx ETV
vector 15 RSUExampleScenario.node[7].veinsmobility posy ETV
vector 16 RSUExampleScenario.node[8].veinsmobility posx ETV
vector 17 RSUExampleScenario.node[8].veinsmobility posy ETV
vector 18 RSUExampleScenario.node[9].veinsmobility posx ETV
vector 19 RSUExampleScenario.node[9].veinsmobility posy ETV
vector 20 RSUExampleScenario.node[10].veinsmobility posx ETV
vector 21 RSUExampleScenario.node[10].veinsmobility posy ETV
vector 22 RSUExampleScenario.node[11].veinsmobility posx ETV
vector 23 RSUExampleScenario.node[11].veinsmobility posy ETV
vector 24 RSUExampleScenario.node[12].veinsmobility posx ETV
vector 25 RSUExampleScenario.node[12].veinsmobility posy ETV
vector 26 RSUExampleScenario.node[13].veinsmobility posx ETV
vector 27 RSUExampleScenario.node[13].veinsmobility posy ETV
vector 28 RSUExampleScenario.node[14].veinsmobility posx ETV
vector 29 RSUExampleScenario.node[14].veinsmobility posy ETV
vector 30 RSUExampleScenario.node[15].veinsmobility posx ETV
vector 31 RSUExampleScenario.node[15].veinsmobility posy ETV
vector 32 RSUExampleScenario.node[16].veinsmobility posx ETV
vector 33 RSUExampleScenario.node[16].veinsmobility posy ETV
vector 34 RSUExampleScenario.node[17].veinsmobility posx ETV
vector 35 RSUExampleScenario.node[17].veinsmobility posy ETV
vector 36 RSUExampleScenario.node[18].veinsmobility posx ETV
vector 37 RSUExampleScenario.node[18].veinsmobility posy ETV
vector 38 RSUExampleScenario.node[19].veinsmobility posx ETV
vector 39 RSUExampleScenario.node[19].veinsmobility posy ETV
vector 40 RSUExampleScenario.node[20].veinsmobility posx ETV
vector 41 RSUExampleScenario.node[20].veinsmobility posy ETV
vector 42 RSUExampleScenario.node[21].veinsmobility posx ETV
vector 43 RSUExampleScenario.node[21].veinsmobility posy ETV
vector 44 RSUExampleScenario.node[22].veinsmobility posx ETV
vector 45 RSUExampleScenario.node[22].veinsmobility posy ETV
vector 46 RSUExampleScenario.node[23].veinsmobility posx ETV
vector 47 RSUExampleScenario.node[23].veinsmobility posy ETV
vector 48 RSUExampleScenario.node[24].veinsmobility posx ETV
vector 49 RSUExampleScenario.node[24].veinsmobility posy ETV
vector 50 RSUExampleScenario.node[25].veinsmobility posx ETV
vector 51 RSUExampleScenario.node[25].veinsmobility posy ETV
vector 52 RSUExampleScenario.node[26].veinsmobility posx ETV
vector 53 RSUExampleScenario.node[26].veinsmobility posy ETV
vector 54 RSUExampleScenario.node[27].veinsmobility posx ETV
vector 55 RSUExampleScenario.node[27].veinsmobility posy ETV
vector 56 RSUExampleScenario.node[28].veinsmobility posx ETV
vector 57 RSUExampleScenario.node[28].veinsmobility posy ETV
vector 58 RSUExampleScenario.node[29].veinsmobility posx ETV
vector 59 RSUExampleScenario.node[29].veinsmobility posy ETV
vector 60 RSUExampleScenario.node[30].veinsmobility posx ETV
vector 61 RSUExampleScenario.node[30].veinsmobility posy ETV
vector 62 RSUExampleScenario.node[31].veinsmobility posx ETV
vector 63 RSUExampleScenario.node[31].veinsmobility posy ETV
vector 64 RSUExampleScenario.node[32].veinsmobility posx ETV
vector 65 RSUExampleScenario.node[32].veinsmobility posy ETV
vector 66 RSUExampleScenario.node[33].veinsmobility posx ETV
vector 67 RSUExampleScenario.node[33].veinsmobility posy ETV
vector 68 RSUExampleScenario.node[34].veinsmobility posx ETV
vector 69 RSUExampleScenario.node[34].veinsmobility posy ETV
vector 70 RSUExampleScenario.node[35].veinsmobility posx ETV
vector 71 RSUExampleScenario.node[35].veinsmobility posy ETV
vector 72 RSUExampleScenario.node[36].veinsmobility posx ETV
vector 73 RSUExampleScenario.node[36].veinsmobility posy ETV
vector 74 RSUExampleScenario.node[37].veinsmobility posx ETV
vector 75 RSUExampleScenario.node[37].veinsmobility posy ETV
vector 76 RSUExampleScenario.node[38].veinsmobility posx ETV
vector 77 RSUExampleScenario.node[38].veinsmobility posy ETV
vector 78 RSUExampleScenario.node[39].veinsmobility posx ETV
vector 79 RSUExampleScenario.node[39].veinsmobility posy ETV
vector 80 RSUExampleScenario.node[40].veinsmobility posx ETV
vector 81 RSUExampleScenario.node[40].veinsmobility posy ETV
vector 82 RSUExampleScenario.node[41].veinsmobility posx ETV
vector 83 RSUExampleScenario.node[41].veinsmobility posy ETV
vector 84 RSUExampleScenario.node[42].veinsmobility posx ETV
vector 85 RSUExampleScenario.node[42].veinsmobility posy ETV
vector 86 RSUExampleScenario.node[43].veinsmobility posx ETV
vector 87 RSUExampleScenario.node[43].veinsmobility posy ETV
vector 88 RSUExampleScenario.node[44].veinsmobility posx ETV
vector 89 RSUExampleScenario.node[44].veinsmobility posy ETV
vector 90 RSUExampleScenario.node[45].veinsmobility posx ETV
vector 91 RSUExampleScenario.node[45].veinsmobility posy ETV
vector 92 RSUExampleScenario.node[46].veinsmobility posx ETV
vector 93 RSUExampleScenario.node[46].veinsmobility posy ETV
vector 94 RSUExampleScenario.node[47].veinsmobility posx ETV
vector 95 RSUExampleScenario.node[47].veinsmobility posy ETV
vector 96 RSUExampleScenario.node[48].veinsmobility posx ETV
vector 97 RSUExampleScenario.node[48].veinsmobility posy ETV
vector 98 RSUExampleScenario.node[49].veinsmobility posx ETV
vector 99 RSUExampleScenario.node[49].veinsmobility posy ETV
vector 100 RSUExampleScenario.node[50].veinsmobility posx ETV
vector 101 RSUExampleScenario.node[50].veinsmobility posy ETV
vector 102 RSUExampleScenario.node[51].veinsmobility posx ETV
vector 103 RSUExampleScenario.node[51].veinsmobility posy ETV
vector 104 RSUExampleScenario.node[52].veinsmobility posx ETV
vector 105 RSUExampleScenario.node[52].veinsmobility posy ETV
vector 106 RSUExampleScenario.node[53].veinsmobility posx ETV
vector 107 RSUExampleScenario.node[53].veinsmobility posy ETV
vector 108 RSUExampleScenario.node[54].veinsmobility posx ETV
vector 109 RSUExampleScenario.node[54].veinsmobility posy ETV
vector 110 RSUExampleScenario.node[55].veinsmobility posx ETV
vector 111 RSUExampleScenario.node[55].veinsmobility posy ETV
vector 112 RSUExampleScenario.node[56].veinsmobility posx ETV
vector 113 RSUExampleScenario.node[56].veinsmobility posy ETV
vector 114 RSUExampleScenario.node[57].veinsmobility posx ETV
vector 115 RSUExampleScenario.node[57].veinsmobility posy ETV
vector 116 RSUExampleScenario.node[58].veinsmobility posx ETV
vector 117 RSUExampleScenario.node[58].veinsmobility posy ETV
vector 118 RSUExampleScenario.node[59].veinsmobility posx ETV
vector 119 RSUExampleScenario.node[59].veinsmobility posy ETV
vector 120 RSUExampleScenario.node[60].veinsmobility posx ETV
vector 121 RSUExampleScenario.node[60].veinsmobility posy ETV
vector 122 RSUExampleScenario.node[61].veinsmobility posx ETV
vector 123 RSUExampleScenario.node[61].veinsmobility posy ETV
vector 124 RSUExampleScenario.node[62].veinsmobility posx ETV
vector 125 RSUExampleScenario.node[62].veinsmobility posy ETV
vector 126 RSUExampleScenario.node[63].veinsmobility posx ETV
vector 127 RSUExampleScenario.node[63].veinsmobility posy ETV
vector 128 RSUExampleScenario.node[64].veinsmobility posx ETV
vector 129 RSUExampleScenario.node[64].veinsmobility posy ETV
vector 130 RSUExampleScenario.node[65].veinsmobility posx ETV
vector 131 RSUExampleScenario.node[65].veinsmobility posy ETV
vector 132 RSUExampleScenario.node[66].veinsmobility posx ETV
vector 133 RSUExampleScenario.node[66].veinsmobility posy ETV
vector 134 RSUExampleScenario.node[67].veinsmobility posx ETV
vector 135 RSUExampleScenario.node[67].veinsmobility posy ETV
vector 136 RSUExampleScenario.node[68].veinsmobility posx ETV
vector 137 RSUExampleScenario.node[68].veinsmobility posy ETV
vector 138 RSUExampleScenario.node[69].veinsmobility posx ETV
vector 139 RSUExampleScenario.node[69].veinsmobility posy ETV
vector 140 RSUExampleScenario.node[70].veinsmobility posx ETV
vector 141 RSUExampleScenario.node[70].veinsmobility posy ETV
vector 142 RSUExampleScenario.node[71].veinsmobility posx ETV
vector 143 RSUExampleScenario.node[71].veinsmobility posy ETV
vector 144 RSUExampleScenario.node[72].veinsmobility posx ETV
vector 145 RSUExampleScenario.node[72].veinsmobility posy ETV
vector 146 RSUExampleScenario.node[73].veinsmobility posx ETV
vector 147 RSUExampleScenario.node[73].veinsmobility posy ETV
vector 148 RSUExampleScenario.node[74].veinsmobility posx ETV
vector 149 RSUExampleScenario.node[74].veinsmobility posy ETV
vector 150 RSUExampleScenario.node[75].veinsmobility posx ETV
vector 151 RSUExampleScenario.node[75].veinsmobility posy ETV
vector 152 RSUExampleScenario.node[0].veinsmobility speed ETV
vector 153 RSUExampleScenario.node[1].veinsmobility speed ETV
vector 154 RSUExampleScenario.node[76].veinsmobility posx ETV
vector 155 RSUExampleScenario.node[76].veinsmobility posy ETV
vector 156 RSUExampleScenario.node[77].veinsmobility posx ETV
vector 157 RSUExampleScenario.node[77].veinsmobility posy ETV
vector 158 RSUExampleScenario.node[78].veinsmobility posx ETV
vector 159 RSUExampleScenario.node[78].veinsmobility posy ETV
vector 160 RSUExampleScenario.node[79].veinsmobility posx ETV
vector 161 RSUExampleScenario.node[79].veinsmobility posy ETV
vector 162 RSUExampleScenario.node[80].veinsmobility posx ETV
vector 163 RSUExampleScenario.node[80].veinsmobility posy ETV
vector 164 RSUExampleScenario.node[81].veinsmobility posx ETV
vector 165 RSUExampleScenario.node[81].veinsmobility posy ETV
vector 166 RSUExampleScenario.node[82].veinsmobility posx ETV
vector 167 RSUExampleScenario.node[82].veinsmobility posy ETV
vector 168 RSUExampleScenario.node[83].veinsmobility posx ETV
vector 169 RSUExampleScenario.node[83].veinsmobility posy ETV
vector 170 RSUExampleScenario.node[84].veinsmobility posx ETV
vector 171 RSUExampleScenario.node[84].veinsmobility posy ETV
vector 172 RSUExampleScenario.node[85].veinsmobility posx ETV
vector 173 RSUExampleScenario.node[85].veinsmobility posy ETV
vector 174 RSUExampleScenario.node[86].veinsmobility posx ETV
vector 175 RSUExampleScenario.node[86].veinsmobility posy ETV
vector 176 RSUExampleScenario.node[87].veinsmobility posx ETV
vector 177 RSUExampleScenario.node[87].veinsmobility posy ETV
vector 178 RSUExampleScenario.node[88].veinsmobility posx ETV
vector 179 RSUExampleScenario.node[88].veinsmobility posy ETV
vector 180 RSUExampleScenario.node[89].veinsmobility posx ETV
vector 181 RSUExampleScenario.node[89].veinsmobility posy ETV
vector 182 RSUExampleScenario.node[90].veinsmobility posx ETV
vector 183 RSUExampleScenario.node[90].veinsmobility posy ETV
vector 184 RSUExampleScenario.node[91].veinsmobility posx ETV
vector 185 RSUExampleScenario.node[91].veinsmobility posy ETV
vector 186 RSUExampleScenario.node[92].veinsmobility posx ETV
vector 187 RSUExampleScenario.node[92].veinsmobility posy ETV
vector 188 RSUExampleScenario.node[93].veinsmobility posx ETV
vector 189 RSUExampleScenario.node[93].veinsmobility posy ETV
vector 190 RSUExampleScenario.node[94].veinsmobility posx ETV
vector 191 RSUExampleScenario.node[94].veinsmobility posy ETV
vector 192 RSUExampleScenario.node[95].veinsmobility posx ETV
vector 193 RSUExampleScenario.node[95].veinsmobility posy ETV
vector 194 RSUExampleScenario.node[96].veinsmobility posx ETV
vector 195 RSUExampleScenario.node[96].veinsmobility posy ETV
vector 196 RSUExampleScenario.node[97].veinsmobility posx ETV
vector 197 RSUExampleScenario.node[97].veinsmobility posy ETV
vector 198 RSUExampleScenario.node[98].veinsmobility posx ETV
vector 199 RSUExampleScenario.node[98].veinsmobility posy ETV
vector 200 RSUExampleScenario.node[99].veinsmobility posx ETV
vector 201 RSUExampleScenario.node[99].veinsmobility posy ETV
vector 202 RSUExampleScenario.node[100].veinsmobility posx ETV
vector 203 RSUExampleScenario.node[100].veinsmobility posy ETV
vector 204 RSUExampleScenario.node[101].veinsmobility posx ETV
vector 205 RSUExampleScenario.node[101].veinsmobility posy ETV
vector 206 RSUExampleScenario.node[102].veinsmobility posx ETV
vector 207 RSUExampleScenario.node[102].veinsmobility posy ETV
vector 208 RSUExampleScenario.node[103].veinsmobility posx ETV
vector 209 RSUExampleScenario.node[103].veinsmobility posy ETV
vector 210 RSUExampleScenario.node[104].veinsmobility posx ETV
vector 211 RSUExampleScenario.node[104].veinsmobility posy ETV
vector 212 RSUExampleScenario.node[105].veinsmobility posx ETV
vector 213 RSUExampleScenario.node[105].veinsmobility posy ETV
vector 214 RSUExampleScenario.node[106].veinsmobility posx ETV
vector 215 RSUExampleScenario.node[106].veinsmobility posy ETV
vector 216 RSUExampleScenario.node[107].veinsmobility posx ETV
vector 217 RSUExampleScenario.node[107].veinsmobility posy ETV
vector 218 RSUExampleScenario.node[108].veinsmobility posx ETV
vector 219 RSUExampleScenario.node[108].veinsmobility posy ETV
vector 220 RSUExampleScenario.node[109].veinsmobility posx ETV
vector 221 RSUExampleScenario.node[109].veinsmobility posy ETV
vector 222 RSUExampleScenario.node[110].veinsmobility posx ETV
vector 223 RSUExampleScenario.node[110].veinsmobility posy ETV
vector 224 RSUExampleScenario.node[111].veinsmobility posx ETV
vector 225 RSUExampleScenario.node[111].veinsmobility posy ETV
vector 226 RSUExampleScenario.node[112].veinsmobility posx ETV
vector 227 RSUExampleScenario.node[112].veinsmobility posy ETV
vector 228 RSUExampleScenario.node[113].veinsmobility posx ETV
vector 229 RSUExampleScenario.node[113].veinsmobility posy ETV
vector 230 RSUExampleScenario.node[114].veinsmobility posx ETV
vector 231 RSUExampleScenario.node[114].veinsmobility posy ETV
vector 232 RSUExampleScenario.node[115].veinsmobility posx ETV
vector 233 RSUExampleScenario.node[115].veinsmobility posy ETV
vector 234 RSUExampleScenario.node[116].veinsmobility posx ETV
vector 235 RSUExampleScenario.node[116].veinsmobility posy ETV
vector 236 RSUExampleScenario.node[0].veinsmobility acceleration ETV
vector 237 RSUExampleScenario.node[0].veinsmobility co2emission ETV
vector 238 RSUExampleScenario.node[1].veinsmobility acceleration ETV
vector 239 RSUExampleScenario.node[1].veinsmobility co2emission ETV
vector 240 RSUExampleScenario.node[2].veinsmobility speed ETV
vector 241 RSUExampleScenario.node[3].veinsmobility speed ETV
vector 242 RSUExampleScenario.node[4].veinsmobility speed ETV
vector 243 RSUExampleScenario.node[5].veinsmobility speed ETV
vector 244 RSUExampleScenario.node[6].veinsmobility speed ETV
vector 245 RSUExampleScenario.node[7].veinsmobility speed ETV
vector 246 RSUExampleScenario.node[8].veinsmobility speed ETV
vector 247 RSUExampleScenario.node[9].veinsmobility speed ETV
vector 248 RSUExampleScenario.node[10].veinsmobility speed ETV
vector 249 RSUExampleScenario.node[11].veinsmobility speed ETV
vector 250 RSUExampleScenario.node[12].veinsmobility speed ETV
vector 251 RSUExampleScenario.node[13].veinsmobility speed ETV
vector 252 RSUExampleScenario.node[14].veinsmobility speed ETV
vector 253 RSUExampleScenario.node[15].veinsmobility speed ETV
vector 254 RSUExampleScenario.node[16].veinsmobility speed ETV
vector 255 RSUExampleScenario.node[17].veinsmobility speed ETV
vector 256 RSUExampleScenario.node[18].veinsmobility speed ETV
vector 257 RSUExampleScenario.node[19].veinsmobility speed ETV
vector 258 RSUExampleScenario.node[20].veinsmobility speed ETV
vector 259 RSUExampleScenario.node[21].veinsmobility speed ETV
vector 260 RSUExampleScenario.node[22].veinsmobility speed ETV
vector 261 RSUExampleScenario.node[23].veinsmobility speed ETV
vector 262 RSUExampleScenario.node[24].veinsmobility speed ETV
vector 263 RSUExampleScenario.node[25].veinsmobility speed ETV
vector 264 RSUExampleScenario.node[26].veinsmobility speed ETV
vector 265 RSUExampleScenario.node[27].veinsmobility speed ETV
vector 266 RSUExampleScenario.node[28].veinsmobility speed ETV
vector 267 RSUExampleScenario.node[29].veinsmobility speed ETV
vector 268 RSUExampleScenario.node[30].veinsmobility speed ETV
vector 269 RSUExampleScenario.node[31].veinsmobility speed ETV
vector 270 RSUExampleScenario.node[32].veinsmobility speed ETV
vector 271 RSUExampleScenario.node[33].veinsmobility speed ETV
vector 272 RSUExampleScenario.node[34].veinsmobility speed ETV
vector 273 RSUExampleScenario.node[35].veinsmobility speed ETV
vector 274 RSUExampleScenario.node[36].veinsmobility speed ETV
vector 275 RSUExampleScenario.node[37].veinsmobility speed ETV
vector 276 RSUExampleScenario.node[38].veinsmobility speed ETV
vector 277 RSUExampleScenario.node[39].veinsmobility speed ETV
vector 278 RSUExampleScenario.node[40].veinsmobility speed ETV
vector 279 RSUExampleScenario.node[41].veinsmobility speed ETV
vector 280 RSUExampleScenario.node[42].veinsmobility speed ETV
vector 281 RSUExampleScenario.node[43].veinsmobility speed ETV
vector 282 RSUExampleScenario.node[44].veinsmobility speed ETV
vector 283 RSUExampleScenario.node[45].veinsmobility speed ETV
vector 284 RSUExampleScenario.node[46].veinsmobility speed ETV
vector 285 RSUExampleScenario.node[47].veinsmobility speed ETV
vector 286 RSUExampleScenario.node[48].veinsmobility speed ETV
vector 287 RSUExampleScenario.node[49].veinsmobility speed ETV
vector 288 RSUExampleScenario.node[50].veinsmobility speed ETV
vector 289 RSUExampleScenario.node[51].veinsmobility speed ETV
vector 290 RSUExampleScenario.node[52].veinsmobility speed ETV
vector 291 RSUExampleScenario.node[53].veinsmobility speed ETV
vector 292 RSUExampleScenario.node[54].veinsmobility speed ETV
vector 293 RSUExampleScenario.node[55].veinsmobility speed ETV
vector 294 RSUExampleScenario.node[56].veinsmobility speed ETV
vector 295 RSUExampleScenario.node[57].veinsmobility speed ETV
vector 296 RSUExampleScenario.node[58].veinsmobility speed ETV
vector 297 RSUExampleScenario.node[59].veinsmobility speed ETV
vector 298 RSUExampleScenario.node[60].veinsmobility speed ETV
vector 299 RSUExampleScenario.node[61].veinsmobility speed ETV
vector 300 RSUExampleScenario.node[62].veinsmobility speed ETV
vector 301 RSUExampleScenario.node[63].veinsmobility speed ETV
vector 302 RSUExampleScenario.node[64].veinsmobility speed ETV
vector 303 RSUExampleScenario.node[65].veinsmobility speed ETV
vector 304 RSUExampleScenario.node[66].veinsmobility speed ETV
vector 305 RSUExampleScenario.node[67].veinsmobility speed ETV
vector 306 RSUExampleScenario.node[68].veinsmobility speed ETV
vector 307 RSUExampleScenario.node[69].veinsmobility speed ETV
vector 308 RSUExampleScenario.node[70].veinsmobility speed ETV
vector 309 RSUExampleScenario.node[71].veinsmobility speed ETV
vector 310 RSUExampleScenario.node[72].veinsmobility speed ETV
vector 311 RSUExampleScenario.node[73].veinsmobility speed ETV
vector 312 RSUExampleScenario.node[74].veinsmobility speed ETV
vector 313 RSUExampleScenario.node[75].veinsmobility speed ETV
vector 314 RSUExampleScenario.node[117].veinsmobility posx ETV
vector 315 RSUExampleScenario.node[117].veinsmobility posy ETV
vector 316 RSUExampleScenario.node[118].veinsmobility posx ETV
vector 317 RSUExampleScenario.node[118].veinsmobility posy ETV
vector 318 RSUExampleScenario.node[119].veinsmobility posx ETV
vector 319 RSUExampleScenario.node[119].veinsmobility posy ETV
vector 320 RSUExampleScenario.node[120].veinsmobility posx ETV
vector 321 RSUExampleScenario.node[120].veinsmobility posy ETV
vector 322 RSUExampleScenario.node[121].veinsmobility posx ETV
vector 323 RSUExampleScenario.node[121].veinsmobility posy ETV
vector 324 RSUExampleScenario.node[122].veinsmobility posx ETV
vector 325 RSUExampleScenario.node[122].veinsmobility posy ETV
vector 326 RSUExampleScenario.node[123].veinsmobility posx ETV
vector 327 RSUExampleScenario.node[123].veinsmobility posy ETV
vector 328 RSUExampleScenario.node[124].veinsmobility posx ETV
vector 329 RSUExampleScenario.node[124].veinsmobility posy ETV
vector 330 RSUExampleScenario.node[125].veinsmobility posx ETV
vector 331 RSUExampleScenario.node[125].veinsmobility posy ETV
vector 332 RSUExampleScenario.node[126].veinsmobility posx ETV
vector 333 RSUExampleScenario.node[126].veinsmobility posy ETV
vector 334 RSUExampleScenario.node[127].veinsmobility posx ETV
vector 335 RSUExampleScenario.node[127].veinsmobility posy ETV
vector 336 RSUExampleScenario.node[128].veinsmobility posx ETV
vector 337 RSUExampleScenario.node[128].veinsmobility posy ETV
vector 338 RSUExampleScenario.node[129].veinsmobility posx ETV
vector 339 RSUExampleScenario.node[129].veinsmobility posy ETV
vector 340 RSUExampleScenario.node[130].veinsmobility posx ETV
vector 341 RSUExampleScenario.node[130].veinsmobility posy ETV
vector 342 RSUExampleScenario.node[131].veinsmobility posx ETV
vector 343 RSUExampleScenario.node[131].veinsmobility posy ETV
vector 344 RSUExampleScenario.node[132].veinsmobility posx ETV
vector 345 RSUExampleScenario.node[132].veinsmobility posy ETV
vector 346 RSUExampleScenario.node[133].veinsmobility posx ETV
vector 347 RSUExampleScenario.node[133].veinsmobility posy ETV
vector 348 RSUExampleScenario.node[134].veinsmobility posx ETV
vector 349 RSUExampleScenario.node[134].veinsmobility posy ETV
vector 350 RSUExampleScenario.node[135].veinsmobility posx ETV
vector 351 RSUExampleScenario.node[135].veinsmobility posy ETV
vector 352 RSUExampleScenario.node[136].veinsmobility posx ETV
vector 353 RSUExampleScenario.node[136].veinsmobility posy ETV
vector 354 RSUExampleScenario.node[137].veinsmobility posx ETV
vector 355 RSUExampleScenario.node[137].veinsmobility posy ETV
vector 356 RSUExampleScenario.node[138].veinsmobility posx ETV
vector 357 RSUExampleScenario.node[138].veinsmobility posy ETV
vector 358 RSUExampleScenario.node[139].veinsmobility posx ETV
vector 359 RSUExampleScenario.node[139].veinsmobility posy ETV
vector 360 RSUExampleScenario.node[140].veinsmobility posx ETV
vector 361 RSUExampleScenario.node[140].veinsmobility posy ETV
vector 362 RSUExampleScenario.node[141].veinsmobility posx ETV
vector 363 RSUExampleScenario.node[141].veinsmobility posy ETV
vector 364 RSUExampleScenario.node[142].veinsmobility posx ETV
vector 365 RSUExampleScenario.node[142].veinsmobility posy ETV
vector 366 RSUExampleScenario.node[143].veinsmobility posx ETV
vector 367 RSUExampleScenario.node[143].veinsmobility posy ETV
vector 368 RSUExampleScenario.node[144].veinsmobility posx ETV
vector 369 RSUExampleScenario.node[144].veinsmobility posy ETV
vector 370 RSUExampleScenario.node[145].veinsmobility posx ETV
vector 371 RSUExampleScenario.node[145].veinsmobility posy ETV
vector 372 RSUExampleScenario.node[146].veinsmobility posx ETV
vector 373 RSUExampleScenario.node[146].veinsmobility posy ETV
vector 374 RSUExampleScenario.node[147].veinsmobility posx ETV
vector 375 RSUExampleScenario.node[147].veinsmobility posy ETV
vector 376 RSUExampleScenario.node[148].veinsmobility posx ETV
vector 377 RSUExampleScenario.node[148].veinsmobility posy ETV
vector 378 RSUExampleScenario.node[149].veinsmobility posx ETV
vector 379 RSUExampleScenario.node[149].veinsmobility posy ETV
vector 380 RSUExampleScenario.node[150].veinsmobility posx ETV
vector 381 RSUExampleScenario.node[150].veinsmobility posy ETV
vector 382 RSUExampleScenario.node[151].veinsmobility posx ETV
vector 383 RSUExampleScenario.node[151].veinsmobility posy ETV
vector 384 RSUExampleScenario.node[2].veinsmobility acceleration ETV
vector 385 RSUExampleScenario.node[2].veinsmobility co2emission ETV
vector 386 RSUExampleScenario.node[3].veinsmobility acceleration ETV
vector 387 RSUExampleScenario.node[3].veinsmobility co2emission ETV
vector 388 RSUExampleScenario.node[4].veinsmobility acceleration ETV
vector 389 RSUExampleScenario.node[4].veinsmobility co2emission ETV
vector 390 RSUExampleScenario.node[5].veinsmobility acceleration ETV
vector 391 RSUExampleScenario.node[5].veinsmobility co2emission ETV
vector 392 RSUExampleScenario.node[6].veinsmobility acceleration ETV
vector 393 RSUExampleScenario.node[6].veinsmobility co2emission ETV
vector 394 RSUExampleScenario.node[7].veinsmobility acceleration ETV
vector 395 RSUExampleScenario.node[7].veinsmobility co2emission ETV
vector 396 RSUExampleScenario.node[8].veinsmobility acceleration ETV
vector 397 RSUExampleScenario.node[8].veinsmobility co2emission ETV
vector 398 RSUExampleScenario.node[9].veinsmobility acceleration ETV
vector 399 RSUExampleScenario.node[9].veinsmobility co2emission ETV
vector 400 RSUExampleScenario.node[10].veinsmobility acceleration ETV
vector 401 RSUExampleScenario.node[10].veinsmobility co2emission ETV
vector 402 RSUExampleScenario.node[11].veinsmobility acceleration ETV
vector 403 RSUExampleScenario.node[11].veinsmobility co2emission ETV
vector 404 RSUExampleScenario.node[12].veinsmobility acceleration ETV
vector 405 RSUExampleScenario.node[12].veinsmobility co2emission ETV
vector 406 RSUExampleScenario.node[13].veinsmobility acceleration ETV
vector 407 RSUExampleScenario.node[13].veinsmobility co2emission ETV
vector 408 RSUExampleScenario.node[14].veinsmobility acceleration ETV
vector 409 RSUExampleScenario.node[14].veinsmobility co2emission ETV
vector 410 RSUExampleScenario.node[15].veinsmobility acceleration ETV
vector 411 RSUExampleScenario.node[15].veinsmobility co2emission ETV
vector 412 RSUExampleScenario.node[16].veinsmobility acceleration ETV
vector 413 RSUExampleScenario.node[16].veinsmobility co2emission ETV
vector 414 RSUExampleScenario.node[17].veinsmobility acceleration ETV
vector 415 RSUExampleScenario.node[17].veinsmobility co2emission ETV
vector 416 RSUExampleScenario.node[18].veinsmobility acceleration ETV
vector 417 RSUExampleScenario.node[18].veinsmobility co2emission ETV
vector 418 RSUExampleScenario.node[19].veinsmobility acceleration ETV
vector 419 RSUExampleScenario.node[19].veinsmobility co2emission ETV
vector 420 RSUExampleScenario.node[20].veinsmobility acceleration ETV
vector 421 RSUExampleScenario.node[20].veinsmobility co2emission ETV
vector 422 RSUExampleScenario.node[21].veinsmobility acceleration ETV
vector 423 RSUExampleScenario.node[21].veinsmobility co2emission ETV
vector 424 RSUExampleScenario.node[22].veinsmobility acceleration ETV
vector 425 RSUExampleScenario.node[22].veinsmobility co2emission ETV
vector 426 RSUExampleScenario.node[23].veinsmobility acceleration ETV
vector 427 RSUExampleScenario.node[23].veinsmobility co2emission ETV
vector 428 RSUExampleScenario.node[24].veinsmobility acceleration ETV
vector 429 RSUExampleScenario.node[24].veinsmobility co2emission ETV
vector 430 RSUExampleScenario.node[25].veinsmobility acceleration ETV
vector 431 RSUExampleScenario.node[25].veinsmobility co2emission ETV
vector 432 RSUExampleScenario.node[26].veinsmobility acceleration ETV
vector 433 RSUExampleScenario.node[26].veinsmobility co2emission ETV
vector 434 RSUExampleScenario.node[27].veinsmobility acceleration ETV
vector 435 RSUExampleScenario.node[27].veinsmobility co2emission ETV
vector 436 RSUExampleScenario.node[28].veinsmobility acceleration ETV
vector 437 RSUExampleScenario.node[28].veinsmobility co2emission ETV
vector 438 RSUExampleScenario.node[29].veinsmobility acceleration ETV
vector 439 RSUExampleScenario.node[29].veinsmobility co2emission ETV
vector 440 RSUExampleScenario.node[30].veinsmobility acceleration ETV
vector 441 RSUExampleScenario.node[30].veinsmobility co2emission ETV
vector 442 RSUExampleScenario.node[31].veinsmobility acceleration ETV
vector 443 RSUExampleScenario.node[31].veinsmobility co2emission ETV
vector 444 RSUExampleScenario.node[32].veinsmobility acceleration ETV
vector 445 RSUExampleScenario.node[32].veinsmobility co2emission ETV
vector 446 RSUExampleScenario.node[33].veinsmobility acceleration ETV
vector 447 RSUExampleScenario.node[33].veinsmobility co2emission ETV
vector 448 RSUExampleScenario.node[34].veinsmobility acceleration ETV
vector 449 RSUExampleScenario.node[34].veinsmobility co2emission ETV
vector 450 RSUExampleScenario.node[35].veinsmobility acceleration ETV
vector 451 RSUExampleScenario.node[35].veinsmobility co2emission ETV
vector 452 RSUExampleScenario.node[36].veinsmobility acceleration ETV
vector 453 RSUExampleScenario.node[36].veinsmobility co2emission ETV
vector 454 RSUExampleScenario.node[37].veinsmobility acceleration ETV
vector 455 RSUExampleScenario.node[37].veinsmobility co2emission ETV
vector 456 RSUExampleScenario.node[38].veinsmobility acceleration ETV
vector 457 RSUExampleScenario.node[38].veinsmobility co2emission ETV
vector 458 RSUExampleScenario.node[39].veinsmobility acceleration ETV
vector 459 RSUExampleScenario.node[39].veinsmobility co2emission ETV
vector 460 RSUExampleScenario.node[40].veinsmobility acceleration ETV
vector 461 RSUExampleScenario.node[40].veinsmobility co2emission ETV
vector 462 RSUExampleScenario.node[41].veinsmobility acceleration ETV
vector 463 RSUExampleScenario.node[41].veinsmobility co2emission ETV
vector 464 RSUExampleScenario.node[42].veinsmobility acceleration ETV
vector 465 RSUExampleScenario.node[42].veinsmobility co2emission ETV
vector 466 RSUExampleScenario.node[43].veinsmobility acceleration ETV
vector 467 RSUExampleScenario.node[43].veinsmobility co2emission ETV
vector 468 RSUExampleScenario.node[44].veinsmobility acceleration ETV
vector 469 RSUExampleScenario.node[44].veinsmobility co2emission ETV
vector 470 RSUExampleScenario.node[45].veinsmobility acceleration ETV
vector 471 RSUExampleScenario.node[45].veinsmobility co2emission ETV
vector 472 RSUExampleScenario.node[46].veinsmobility acceleration ETV
vector 473 RSUExampleScenario.node[46].veinsmobility co2emission ETV
vector 474 RSUExampleScenario.node[47].veinsmobility acceleration ETV
vector 475 RSUExampleScenario.node[47].veinsmobility co2emission ETV
vector 476 RSUExampleScenario.node[48].veinsmobility acceleration ETV
vector 477 RSUExampleScenario.node[48].veinsmobility co2emission ETV
vector 478 RSUExampleScenario.node[49].veinsmobility acceleration ETV
vector 479 RSUExampleScenario.node[49].veinsmobility co2emission ETV
vector 480 RSUExampleScenario.node[50].veinsmobility acceleration ETV
vector 481 RSUExampleScenario.node[50].veinsmobility co2emission ETV
vector 482 RSUExampleScenario.node[51].veinsmobility acceleration ETV
vector 483 RSUExampleScenario.node[51].veinsmobility co2emission ETV
vector 484 RSUExampleScenario.node[52].veinsmobility acceleration ETV
vector 485 RSUExampleScenario.node[52].veinsmobility co2emission ETV
vector 486 RSUExampleScenario.node[53].veinsmobility acceleration ETV
vector 487 RSUExampleScenario.node[53].veinsmobility co2emission ETV
vector 488 RSUExampleScenario.node[54].veinsmobility acceleration ETV
vector 489 RSUExampleScenario.node[54].veinsmobility co2emission ETV
vector 490 RSUExampleScenario.node[55].veinsmobility acceleration ETV
vector 491 RSUExampleScenario.node[55].veinsmobility co2emission ETV
vector 492 RSUExampleScenario.node[56].veinsmobility acceleration ETV
vector 493 RSUExampleScenario.node[56].veinsmobility co2emission ETV
vector 494 RSUExampleScenario.node[57].veinsmobility acceleration ETV
vector 495 RSUExampleScenario.node[57].veinsmobility co2emission ETV
vector 496 RSUExampleScenario.node[58].veinsmobility acceleration ETV
vector 497 RSUExampleScenario.node[58].veinsmobility co2emission ETV
vector 498 RSUExampleScenario.node[59].veinsmobility acceleration ETV
vector 499 RSUExampleScenario.node[59].veinsmobility co2emission ETV
vector 500 RSUExampleScenario.node[60].veinsmobility acceleration ETV
vector 501 RSUExampleScenario.node[60].veinsmobility co2emission ETV
vector 502 RSUExampleScenario.node[61].veinsmobility acceleration ETV
vector 503 RSUExampleScenario.node[61].veinsmobility co2emission ETV
vector 504 RSUExampleScenario.node[62].veinsmobility acceleration ETV
vector 505 RSUExampleScenario.node[62].veinsmobility co2emission ETV
vector 506 RSUExampleScenario.node[63].veinsmobility acceleration ETV
vector 507 RSUExampleScenario.node[63].veinsmobility co2emission ETV
vector 508 RSUExampleScenario.node[64].veinsmobility acceleration ETV
vector 509 RSUExampleScenario.node[64].veinsmobility co2emission ETV
vector 510 RSUExampleScenario.node[65].veinsmobility acceleration ETV
vector 511 RSUExampleScenario.node[65].veinsmobility co2emission ETV
vector 512 RSUExampleScenario.node[66].veinsmobility acceleration ETV
vector 513 RSUExampleScenario.node[66].veinsmobility co2emission ETV
vector 514 RSUExampleScenario.node[67].veinsmobility acceleration ETV
vector 515 RSUExampleScenario.node[67].veinsmobility co2emission ETV
vector 516 RSUExampleScenario.node[68].veinsmobility acceleration ETV
vector 517 RSUExampleScenario.node[68].veinsmobility co2emission ETV
vector 518 RSUExampleScenario.node[69].veinsmobility acceleration ETV
vector 519 RSUExampleScenario.node[69].veinsmobility co2emission ETV
vector 520 RSUExampleScenario.node[70].veinsmobility acceleration ETV
vector 521 RSUExampleScenario.node[70].veinsmobility co2emission ETV
vector 522 RSUExampleScenario.node[71].veinsmobility acceleration ETV
vector 523 RSUExampleScenario.node[71].veinsmobility co2emission ETV
vector 524 RSUExampleScenario.node[72].veinsmobility acceleration ETV
vector 525 RSUExampleScenario.node[72].veinsmobility co2emission ETV
vector 526 RSUExampleScenario.node[73].veinsmobility acceleration ETV
vector 527 RSUExampleScenario.node[73].veinsmobility co2emission ETV
vector 528 RSUExampleScenario.node[74].veinsmobility acceleration ETV
vector 529 RSUExampleScenario.node[74].veinsmobility co2emission ETV
vector 530 RSUExampleScenario.node[75].veinsmobility acceleration ETV
vector 531 RSUExampleScenario.node[75].veinsmobility co2emission ETV
vector 532 RSUExampleScenario.node[76].veinsmobility speed ETV
vector 533 RSUExampleScenario.node[77].veinsmobility speed ETV
vector 534 RSUExampleScenario.node[78].veinsmobility speed ETV
vector 535 RSUExampleScenario.node[79].veinsmobility speed ETV
vector 536 RSUExampleScenario.node[80].veinsmobility speed ETV
vector 537 RSUExampleScenario.node[81].veinsmobility speed ETV
vector 538 RSUExampleScenario.node[82].veinsmobility speed ETV
vector 539 RSUExampleScenario.node[83].veinsmobility speed ETV
vector 540 RSUExampleScenario.node[84].veinsmobility speed ETV
vector 541 RSUExampleScenario.node[85].veinsmobility speed ETV
vector 542 RSUExampleScenario.node[86].veinsmobility speed ETV
vector 543 RSUExampleScenario.node[87].veinsmobility speed ETV
vector 544 RSUExampleScenario.node[88].veinsmobility speed ETV
vector 545 RSUExampleScenario.node[89].veinsmobility speed ETV
vector 546 RSUExampleScenario.node[90].veinsmobility speed ETV
vector 547 RSUExampleScenario.node[91].veinsmobility speed ETV
vector 548 RSUExampleScenario.node[92].veinsmobility speed ETV
vector 549 RSUExampleScenario.node[93].veinsmobility speed ETV
vector 550 RSUExampleScenario.node[94].veinsmobility speed ETV
vector 551 RSUExampleScenario.node[95].veinsmobility speed ETV
vector 552 RSUExampleScenario.node[96].veinsmobility speed ETV
vector 553 RSUExampleScenario.node[97].veinsmobility speed ETV
vector 554 RSUExampleScenario.node[98].veinsmobility speed ETV
vector 555 RSUExampleScenario.node[99].veinsmobility speed ETV
vector 556 RSUExampleScenario.node[100].veinsmobility speed ETV
vector 557 RSUExampleScenario.node[101].veinsmobility speed ETV
vector 558 RSUExampleScenario.node[102].veinsmobility speed ETV
vector 559 RSUExampleScenario.node[103].veinsmobility speed ETV
vector 560 RSUExampleScenario.node[104].veinsmobility speed ETV
vector 561 RSUExampleScenario.node[105].veinsmobility speed ETV
vector 562 RSUExampleScenario.node[106].veinsmobility speed ETV
vector 563 RSUExampleScenario.node[107].veinsmobility speed ETV
vector 564 RSUExampleScenario.node[108].veinsmobility speed ETV
vector 565 RSUExampleScenario.node[109].veinsmobility speed ETV
vector 566 RSUExampleScenario.node[110].veinsmobility speed ETV
vector 567 RSUExampleScenario.node[111].veinsmobility speed ETV
vector 568 RSUExampleScenario.node[112].veinsmobility speed ETV
vector 569 RSUExampleScenario.node[113].veinsmobility speed ETV
vector 570 RSUExampleScenario.node[114].veinsmobility speed ETV
vector 571 RSUExampleScenario.node[115].veinsmobility speed ETV
vector 572 RSUExampleScenario.node[116].veinsmobility speed ETV
vector 573 RSUExampleScenario.node[152].veinsmobility posx ETV
vector 574 RSUExampleScenario.node[152].veinsmobility posy ETV
vector 575 RSUExampleScenario.node[153].veinsmobility posx ETV
vector 576 RSUExampleScenario.node[153].veinsmobility posy ETV
vector 577 RSUExampleScenario.node[154].veinsmobility posx ETV
vector 578 RSUExampleScenario.node[154].veinsmobility posy ETV
vector 579 RSUExampleScenario.node[155].veinsmobility posx ETV
vector 580 RSUExampleScenario.node[155].veinsmobility posy ETV
vector 581 RSUExampleScenario.node[156].veinsmobility posx ETV
vector 582 RSUExampleScenario.node[156].veinsmobility posy ETV
vector 583 RSUExampleScenario.node[157].veinsmobility posx ETV
vector 584 RSUExampleScenario.node[157].veinsmobility posy ETV
vector 585 RSUExampleScenario.node[158].veinsmobility posx ETV
vector 586 RSUExampleScenario.node[158].veinsmobility posy ETV
vector 587 RSUExampleScenario.node[159].veinsmobility posx ETV
vector 588 RSUExampleScenario.node[159].veinsmobility posy ETV
vector 589 RSUExampleScenario.node[160].veinsmobility posx ETV
vector 590 RSUExampleScenario.node[160].veinsmobility posy ETV
vector 591 RSUExampleScenario.node[161].veinsmobility posx ETV
vector 592 RSUExampleScenario.node[161].veinsmobility posy ETV
vector 593 RSUExampleScenario.node[162].veinsmobility posx ETV
vector 594 RSUExampleScenario.node[162].veinsmobility posy ETV
vector 595 RSUExampleScenario.node[163].veinsmobility posx ETV
vector 596 RSUExampleScenario.node[163].veinsmobility posy ETV
vector 597 RSUExampleScenario.node[164].veinsmobility posx ETV
vector 598 RSUExampleScenario.node[164].veinsmobility posy ETV
vector 599 RSUExampleScenario.node[165].veinsmobility posx ETV
vector 600 RSUExampleScenario.node[165].veinsmobility posy ETV
vector 601 RSUExampleScenario.node[166].veinsmobility posx ETV
vector 602 RSUExampleScenario.node[166].veinsmobility posy ETV
vector 603 RSUExampleScenario.node[167].veinsmobility posx ETV
vector 604 RSUExampleScenario.node[167].veinsmobility posy ETV
vector 605 RSUExampleScenario.node[168].veinsmobility posx ETV
vector 606 RSUExampleScenario.node[168].veinsmobility posy ETV
vector 607 RSUExampleScenario.node[169].veinsmobility posx ETV
vector 608 RSUExampleScenario.node[169].veinsmobility posy ETV
vector 609 RSUExampleScenario.node[170].veinsmobility posx ETV
vector 610 RSUExampleScenario.node[170].veinsmobility posy ETV
vector 611 RSUExampleScenario.node[171].veinsmobility posx ETV
vector 612 RSUExampleScenario.node[171].veinsmobility posy ETV
vector 613 RSUExampleScenario.node[172].veinsmobility posx ETV
vector 614 RSUExampleScenario.node[172].veinsmobility posy ETV
vector 615 RSUExampleScenario.node[173].veinsmobility posx ETV
vector 616 RSUExampleScenario.node[173].veinsmobility posy ETV
vector 617 RSUExampleScenario.node[174].veinsmobility posx ETV
vector 618 RSUExampleScenario.node[174].veinsmobility posy ETV
vector 619 RSUExampleScenario.node[175].veinsmobility posx ETV
vector 620 RSUExampleScenario.node[175].veinsmobility posy ETV
vector 621 RSUExampleScenario.node[176].veinsmobility posx ETV
vector 622 RSUExampleScenario.node[176].veinsmobility posy ETV
vector 623 RSUExampleScenario.node[177].veinsmobility posx ETV
vector 624 RSUExampleScenario.node[177].veinsmobility posy ETV
vector 625 RSUExampleScenario.node[178].veinsmobility posx ETV
vector 626 RSUExampleScenario.node[178].veinsmobility posy ETV
vector 627 RSUExampleScenario.node[179].veinsmobility posx ETV
vector 628 RSUExampleScenario.node[179].veinsmobility posy ETV
vector 629 RSUExampleScenario.node[180].veinsmobility posx ETV
vector 630 RSUExampleScenario.node[180].veinsmobility posy ETV
vector 631 RSUExampleScenario.node[181].veinsmobility posx ETV
vector 632 RSUExampleScenario.node[181].veinsmobility posy ETV
vector 633 RSUExampleScenario.node[182].veinsmobility posx ETV
vector 634 RSUExampleScenario.node[182].veinsmobility posy ETV
vector 635 RSUExampleScenario.node[183].veinsmobility posx ETV
vector 636 RSUExampleScenario.node[183].veinsmobility posy ETV
vector 637 RSUExampleScenario.node[184].veinsmobility posx ETV
vector 638 RSUExampleScenario.node[184].veinsmobility posy ETV
vector 639 RSUExampleScenario.node[185].veinsmobility posx ETV
vector 640 RSUExampleScenario.node[185].veinsmobility posy ETV
vector 641 RSUExampleScenario.node[186].veinsmobility posx ETV
vector 642 RSUExampleScenario.node[186].veinsmobility posy ETV
vector 643 RSUExampleScenario.node[187].veinsmobility posx ETV
vector 644 RSUExampleScenario.node[187].veinsmobility posy ETV
vector 645 RSUExampleScenario.node[188].veinsmobility posx ETV
vector 646 RSUExampleScenario.node[188].veinsmobility posy ETV
vector 647 RSUExampleScenario.node[189].veinsmobility posx ETV
vector 648 RSUExampleScenario.node[189].veinsmobility posy ETV
vector 649 RSUExampleScenario.node[190].veinsmobility posx ETV
vector 650 RSUExampleScenario.node[190].veinsmobility posy ETV
vector 651 RSUExampleScenario.node[191].veinsmobility posx ETV
vector 652 RSUExampleScenario.node[191].veinsmobility posy ETV
vector 653 RSUExampleScenario.node[192].veinsmobility posx ETV
vector 654 RSUExampleScenario.node[192].veinsmobility posy ETV
vector 655 RSUExampleScenario.node[193].veinsmobility posx ETV
vector 656 RSUExampleScenario.node[193].veinsmobility posy ETV
vector 657 RSUExampleScenario.node[194].veinsmobility posx ETV
vector 658 RSUExampleScenario.node[194].veinsmobility posy ETV
vector 659 RSUExampleScenario.node[195].veinsmobility posx ETV
vector 660 RSUExampleScenario.node[195].veinsmobility posy ETV
vector 661 RSUExampleScenario.node[196].veinsmobility posx ETV
vector 662 RSUExampleScenario.node[196].veinsmobility posy ETV
vector 663 RSUExampleScenario.node[197].veinsmobility posx ETV
vector 664 RSUExampleScenario.node[197].veinsmobility posy ETV
vector 665 RSUExampleScenario.node[198].veinsmobility posx ETV
vector 666 RSUExampleScenario.node[198].veinsmobility posy ETV
vector 667 RSUExampleScenario.node[199].veinsmobility posx ETV
vector 668 RSUExampleScenario.node[199].veinsmobility posy ETV
vector 669 RSUExampleScenario.node[200].veinsmobility posx ETV
vector 670 RSUExampleScenario.node[200].veinsmobility posy ETV
vector 671 RSUExampleScenario.node[201].veinsmobility posx ETV
vector 672 RSUExampleScenario.node[201].veinsmobility posy ETV
vector 673 RSUExampleScenario.node[202].veinsmobility posx ETV
vector 674 RSUExampleScenario.node[202].veinsmobility posy ETV
vector 675 RSUExampleScenario.node[203].veinsmobility posx ETV
vector 676 RSUExampleScenario.node[203].veinsmobility posy ETV
vector 677 RSUExampleScenario.node[204].veinsmobility posx ETV
vector 678 RSUExampleScenario.node[204].veinsmobility posy ETV
vector 679 RSUExampleScenario.node[205].veinsmobility posx ETV
vector 680 RSUExampleScenario.node[205].veinsmobility posy ETV
vector 681 RSUExampleScenario.node[206].veinsmobility posx ETV
vector 682 RSUExampleScenario.node[206].veinsmobility posy ETV
vector 683 RSUExampleScenario.node[207].veinsmobility posx ETV
vector 684 RSUExampleScenario.node[207].veinsmobility posy ETV
vector 685 RSUExampleScenario.node[208].veinsmobility posx ETV
vector 686 RSUExampleScenario.node[208].veinsmobility posy ETV
vector 687 RSUExampleScenario.node[209].veinsmobility posx ETV
vector 688 RSUExampleScenario.node[209].veinsmobility posy ETV
vector 689 RSUExampleScenario.node[210].veinsmobility posx ETV
vector 690 RSUExampleScenario.node[210].veinsmobility posy ETV
vector 691 RSUExampleScenario.node[211].veinsmobility posx ETV
vector 692 RSUExampleScenario.node[211].veinsmobility posy ETV
vector 693 RSUExampleScenario.node[76].veinsmobility acceleration ETV
vector 694 RSUExampleScenario.node[76].veinsmobility co2emission ETV
vector 695 RSUExampleScenario.node[77].veinsmobility acceleration ETV
vector 696 RSUExampleScenario.node[77].veinsmobility co2emission ETV
vector 697 RSUExampleScenario.node[78].veinsmobility acceleration ETV
vector 698 RSUExampleScenario.node[78].veinsmobility co2emission ETV
vector 699 RSUExampleScenario.node[79].veinsmobility acceleration ETV
vector 700 RSUExampleScenario.node[79].veinsmobility co2emission ETV
vector 701 RSUExampleScenario.node[80].veinsmobility acceleration ETV
vector 702 RSUExampleScenario.node[80].veinsmobility co2emission ETV
vector 703 RSUExampleScenario.node[81].veinsmobility acceleration ETV
vector 704 RSUExampleScenario.node[81].veinsmobility co2emission ETV
vector 705 RSUExampleScenario.node[82].veinsmobility acceleration ETV
vector 706 RSUExampleScenario.node[82].veinsmobility co2emission ETV
vector 707 RSUExampleScenario.node[83].veinsmobility acceleration ETV
vector 708 RSUExampleScenario.node[83].veinsmobility co2emission ETV
vector 709 RSUExampleScenario.node[84].veinsmobility acceleration ETV
vector 710 RSUExampleScenario.node[84].veinsmobility co2emission ETV
vector 711 RSUExampleScenario.node[85].veinsmobility acceleration ETV
vector 712 RSUExampleScenario.node[85].veinsmobility co2emission ETV
vector 713 RSUExampleScenario.node[86].veinsmobility acceleration ETV
vector 714 RSUExampleScenario.node[86].veinsmobility co2emission ETV
vector 715 RSUExampleScenario.node[87].veinsmobility acceleration ETV
vector 716 RSUExampleScenario.node[87].veinsmobility co2emission ETV
vector 717 RSUExampleScenario.node[88].veinsmobility acceleration ETV
vector 718 RSUExampleScenario.node[88].veinsmobility co2emission ETV
vector 719 RSUExampleScenario.node[89].veinsmobility acceleration ETV
vector 720 RSUExampleScenario.node[89].veinsmobility co2emission ETV
vector 721 RSUExampleScenario.node[90].veinsmobility acceleration ETV
vector 722 RSUExampleScenario.node[90].veinsmobility co2emission ETV
vector 723 RSUExampleScenario.node[91].veinsmobility acceleration ETV
vector 724 RSUExampleScenario.node[91].veinsmobility co2emission ETV
vector 725 RSUExampleScenario.node[92].veinsmobility acceleration ETV
vector 726 RSUExampleScenario.node[92].veinsmobility co2emission ETV
vector 727 RSUExampleScenario.node[93].veinsmobility acceleration ETV
vector 728 RSUExampleScenario.node[93].veinsmobility co2emission ETV
vector 729 RSUExampleScenario.node[94].veinsmobility acceleration ETV
vector 730 RSUExampleScenario.node[94].veinsmobility co2emission ETV
vector 731 RSUExampleScenario.node[95].veinsmobility acceleration ETV
vector 732 RSUExampleScenario.node[95].veinsmobility co2emission ETV
vector 733 RSUExampleScenario.node[96].veinsmobility acceleration ETV
vector 734 RSUExampleScenario.node[96].veinsmobility co2emission ETV
vector 735 RSUExampleScenario.node[97].veinsmobility acceleration ETV
vector 736 RSUExampleScenario.node[97].veinsmobility co2emission ETV
vector 737 RSUExampleScenario.node[98].veinsmobility acceleration ETV
vector 738 RSUExampleScenario.node[98].veinsmobility co2emission ETV
vector 739 RSUExampleScenario.node[99].veinsmobility acceleration ETV
vector 740 RSUExampleScenario.node[99].veinsmobility co2emission ETV
vector 741 RSUExampleScenario.node[100].veinsmobility acceleration ETV
vector 742 RSUExampleScenario.node[100].veinsmobility co2emission ETV
vector 743 RSUExampleScenario.node[101].veinsmobility acceleration ETV
vector 744 RSUExampleScenario.node[101].veinsmobility co2emission ETV
vector 745 RSUExampleScenario.node[102].veinsmobility acceleration ETV
vector 746 RSUExampleScenario.node[102].veinsmobility co2emission ETV
vector 747 RSUExampleScenario.node[103].veinsmobility acceleration ETV
vector 748 RSUExampleScenario.node[103].veinsmobility co2emission ETV
vector 749 RSUExampleScenario.node[104].veinsmobility acceleration ETV
vector 750 RSUExampleScenario.node[104].veinsmobility co2emission ETV
vector 751 RSUExampleScenario.node[105].veinsmobility acceleration ETV
vector 752 RSUExampleScenario.node[105].veinsmobility co2emission ETV
vector 753 RSUExampleScenario.node[106].veinsmobility acceleration ETV
vector 754 RSUExampleScenario.node[106].veinsmobility co2emission ETV
vector 755 RSUExampleScenario.node[107].veinsmobility acceleration ETV
vector 756 RSUExampleScenario.node[107].veinsmobility co2emission ETV
vector 757 RSUExampleScenario.node[108].veinsmobility acceleration ETV
vector 758 RSUExampleScenario.node[108].veinsmobility co2emission ETV
vector 759 RSUExampleScenario.node[109].veinsmobility acceleration ETV
vector 760 RSUExampleScenario.node[109].veinsmobility co2emission ETV
vector 761 RSUExampleScenario.node[110].veinsmobility acceleration ETV
vector 762 RSUExampleScenario.node[110].veinsmobility co2emission ETV
vector 763 RSUExampleScenario.node[111].veinsmobility acceleration ETV
vector 764 RSUExampleScenario.node[111].veinsmobility co2emission ETV
vector 765 RSUExampleScenario.node[112].veinsmobility acceleration ETV
vector 766 RSUExampleScenario.node[112].veinsmobility co2emission ETV
vector 767 RSUExampleScenario.node[113].veinsmobility acceleration ETV
vector 768 RSUExampleScenario.node[113].veinsmobility co2emission ETV
vector 769 RSUExampleScenario.node[114].veinsmobility acceleration ETV
vector 770 RSUExampleScenario.node[114].veinsmobility co2emission ETV
vector 771 RSUExampleScenario.node[115].veinsmobility acceleration ETV
vector 772 RSUExampleScenario.node[115].veinsmobility co2emission ETV
vector 773 RSUExampleScenario.node[116].veinsmobility acceleration ETV
vector 774 RSUExampleScenario.node[116].veinsmobility co2emission ETV
vector 775 RSUExampleScenario.node[117].veinsmobility speed ETV
vector 776 RSUExampleScenario.node[118].veinsmobility speed ETV
vector 777 RSUExampleScenario.node[119].veinsmobility speed ETV
vector 778 RSUExampleScenario.node[120].veinsmobility speed ETV
vector 779 RSUExampleScenario.node[121].veinsmobility speed ETV
vector 780 RSUExampleScenario.node[122].veinsmobility speed ETV
vector 781 RSUExampleScenario.node[123].veinsmobility speed ETV
vector 782 RSUExampleScenario.node[124].veinsmobility speed ETV
vector 783 RSUExampleScenario.node[125].veinsmobility speed ETV
vector 784 RSUExampleScenario.node[126].veinsmobility speed ETV
vector 785 RSUExampleScenario.node[127].veinsmobility speed ETV
vector 786 RSUExampleScenario.node[128].veinsmobility speed ETV
vector 787 RSUExampleScenario.node[129].veinsmobility speed ETV
vector 788 RSUExampleScenario.node[130].veinsmobility speed ETV
vector 789 RSUExampleScenario.node[131].veinsmobility speed ETV
vector 790 RSUExampleScenario.node[132].veinsmobility speed ETV
vector 791 RSUExampleScenario.node[133].veinsmobility speed ETV
vector 792 RSUExampleScenario.node[134].veinsmobility speed ETV
vector 793 RSUExampleScenario.node[135].veinsmobility speed ETV
vector 794 RSUExampleScenario.node[136].veinsmobility speed ETV
vector 795 RSUExampleScenario.node[137].veinsmobility speed ETV
vector 796 RSUExampleScenario.node[138].veinsmobility speed ETV
vector 797 RSUExampleScenario.node[139].veinsmobility speed ETV
vector 798 RSUExampleScenario.node[140].veinsmobility speed ETV
vector 799 RSUExampleScenario.node[141].veinsmobility speed ETV
vector 800 RSUExampleScenario.node[142].veinsmobility speed ETV
vector 801 RSUExampleScenario.node[143].veinsmobility speed ETV
vector 802 RSUExampleScenario.node[144].veinsmobility speed ETV
vector 803 RSUExampleScenario.node[145].veinsmobility speed ETV
vector 804 RSUExampleScenario.node[146].veinsmobility speed ETV
vector 805 RSUExampleScenario.node[147].veinsmobility speed ETV
vector 806 RSUExampleScenario.node[148].veinsmobility speed ETV
vector 807 RSUExampleScenario.node[149].veinsmobility speed ETV
vector 808 RSUExampleScenario.node[150].veinsmobility speed ETV
vector 809 RSUExampleScenario.node[151].veinsmobility speed ETV
vector 810 RSUExampleScenario.node[212].veinsmobility posx ETV
vector 811 RSUExampleScenario.node[212].veinsmobility posy ETV
vector 812 RSUExampleScenario.node[213].veinsmobility posx ETV
vector 813 RSUExampleScenario.node[213].veinsmobility posy ETV
vector 814 RSUExampleScenario.node[214].veinsmobility posx ETV
vector 815 RSUExampleScenario.node[214].veinsmobility posy ETV
vector 816 RSUExampleScenario.node[215].veinsmobility posx ETV
vector 817 RSUExampleScenario.node[215].veinsmobility posy ETV
vector 818 RSUExampleScenario.node[216].veinsmobility posx ETV
vector 819 RSUExampleScenario.node[216].veinsmobility posy ETV
vector 820 RSUExampleScenario.node[217].veinsmobility posx ETV
vector 821 RSUExampleScenario.node[217].veinsmobility posy ETV
vector 822 RSUExampleScenario.node[218].veinsmobility posx ETV
vector 823 RSUExampleScenario.node[218].veinsmobility posy ETV
vector 824 RSUExampleScenario.node[219].veinsmobility posx ETV
vector 825 RSUExampleScenario.node[219].veinsmobility posy ETV
vector 826 RSUExampleScenario.node[220].veinsmobility posx ETV
vector 827 RSUExampleScenario.node[220].veinsmobility posy ETV
vector 828 RSUExampleScenario.node[221].veinsmobility posx ETV
vector 829 RSUExampleScenario.node[221].veinsmobility posy ETV
vector 830 RSUExampleScenario.node[222].veinsmobility posx ETV
vector 831 RSUExampleScenario.node[222].veinsmobility posy ETV
vector 832 RSUExampleScenario.node[223].veinsmobility posx ETV
vector 833 RSUExampleScenario.node[223].veinsmobility posy ETV
vector 834 RSUExampleScenario.node[224].veinsmobility posx ETV
vector 835 RSUExampleScenario.node[224].veinsmobility posy ETV
vector 836 RSUExampleScenario.node[225].veinsmobility posx ETV
vector 837 RSUExampleScenario.node[225].veinsmobility posy ETV
vector 838 RSUExampleScenario.node[226].veinsmobility posx ETV
vector 839 RSUExampleScenario.node[226].veinsmobility posy ETV
vector 840 RSUExampleScenario.node[227].veinsmobility posx ETV
vector 841 RSUExampleScenario.node[227].veinsmobility posy ETV
vector 842 RSUExampleScenario.node[228].veinsmobility posx ETV
vector 843 RSUExampleScenario.node[228].veinsmobility posy ETV
vector 844 RSUExampleScenario.node[229].veinsmobility posx ETV
vector 845 RSUExampleScenario.node[229].veinsmobility posy ETV
vector 846 RSUExampleScenario.node[230].veinsmobility posx ETV
vector 847 RSUExampleScenario.node[230].veinsmobility posy ETV
vector 848 RSUExampleScenario.node[231].veinsmobility posx ETV
vector 849 RSUExampleScenario.node[231].veinsmobility posy ETV
vector 850 RSUExampleScenario.node[232].veinsmobility posx ETV
vector 851 RSUExampleScenario.node[232].veinsmobility posy ETV
vector 852 RSUExampleScenario.node[233].veinsmobility posx ETV
vector 853 RSUExampleScenario.node[233].veinsmobility posy ETV
vector 854 RSUExampleScenario.node[234].veinsmobility posx ETV
vector 855 RSUExampleScenario.node[234].veinsmobility posy ETV
vector 856 RSUExampleScenario.node[235].veinsmobility posx ETV
vector 857 RSUExampleScenario.node[235].veinsmobility posy ETV
vector 858 RSUExampleScenario.node[236].veinsmobility posx ETV
vector 859 RSUExampleScenario.node[236].veinsmobility posy ETV
vector 860 RSUExampleScenario.node[237].veinsmobility posx ETV
vector 861 RSUExampleScenario.node[237].veinsmobility posy ETV
vector 862 RSUExampleScenario.node[238].veinsmobility posx ETV
vector 863 RSUExampleScenario.node[238].veinsmobility posy ETV
vector 864 RSUExampleScenario.node[239].veinsmobility posx ETV
vector 865 RSUExampleScenario.node[239].veinsmobility posy ETV
vector 866 RSUExampleScenario.node[240].veinsmobility posx ETV
vector 867 RSUExampleScenario.node[240].veinsmobility posy ETV
vector 868 RSUExampleScenario.node[241].veinsmobility posx ETV
vector 869 RSUExampleScenario.node[241].veinsmobility posy ETV
vector 870 RSUExampleScenario.node[242].veinsmobility posx ETV
vector 871 RSUExampleScenario.node[242].veinsmobility posy ETV
vector 872 RSUExampleScenario.node[243].veinsmobility posx ETV
vector 873 RSUExampleScenario.node[243].veinsmobility posy ETV
vector 874 RSUExampleScenario.node[244].veinsmobility posx ETV
vector 875 RSUExampleScenario.node[244].veinsmobility posy ETV
vector 876 RSUExampleScenario.node[117].veinsmobility acceleration ETV
vector 877 RSUExampleScenario.node[117].veinsmobility co2emission ETV
vector 878 RSUExampleScenario.node[118].veinsmobility acceleration ETV
vector 879 RSUExampleScenario.node[118].veinsmobility co2emission ETV
vector 880 RSUExampleScenario.node[119].veinsmobility acceleration ETV
vector 881 RSUExampleScenario.node[119].veinsmobility co2emission ETV
vector 882 RSUExampleScenario.node[120].veinsmobility acceleration ETV
vector 883 RSUExampleScenario.node[120].veinsmobility co2emission ETV
vector 884 RSUExampleScenario.node[121].veinsmobility acceleration ETV
vector 885 RSUExampleScenario.node[121].veinsmobility co2emission ETV
vector 886 RSUExampleScenario.node[122].veinsmobility acceleration ETV
vector 887 RSUExampleScenario.node[122].veinsmobility co2emission ETV
vector 888 RSUExampleScenario.node[123].veinsmobility acceleration ETV
vector 889 RSUExampleScenario.node[123].veinsmobility co2emission ETV
vector 890 RSUExampleScenario.node[124].veinsmobility acceleration ETV
vector 891 RSUExampleScenario.node[124].veinsmobility co2emission ETV
vector 892 RSUExampleScenario.node[125].veinsmobility acceleration ETV
vector 893 RSUExampleScenario.node[125].veinsmobility co2emission ETV
vector 894 RSUExampleScenario.node[126].veinsmobility acceleration ETV
vector 895 RSUExampleScenario.node[126].veinsmobility co2emission ETV
vector 896 RSUExampleScenario.node[127].veinsmobility acceleration ETV
vector 897 RSUExampleScenario.node[127].veinsmobility co2emission ETV
vector 898 RSUExampleScenario.node[128].veinsmobility acceleration ETV
vector 899 RSUExampleScenario.node[128].veinsmobility co2emission ETV
vector 900 RSUExampleScenario.node[129].veinsmobility acceleration ETV
vector 901 RSUExampleScenario.node[129].veinsmobility co2emission ETV
vector 902 RSUExampleScenario.node[130].veinsmobility acceleration ETV
vector 903 RSUExampleScenario.node[130].veinsmobility co2emission ETV
vector 904 RSUExampleScenario.node[131].veinsmobility acceleration ETV
vector 905 RSUExampleScenario.node[131].veinsmobility co2emission ETV
vector 906 RSUExampleScenario.node[132].veinsmobility acceleration ETV
vector 907 RSUExampleScenario.node[132].veinsmobility co2emission ETV
vector 908 RSUExampleScenario.node[133].veinsmobility acceleration ETV
vector 909 RSUExampleScenario.node[133].veinsmobility co2emission ETV
vector 910 RSUExampleScenario.node[134].veinsmobility acceleration ETV
vector 911 RSUExampleScenario.node[134].veinsmobility co2emission ETV
vector 912 RSUExampleScenario.node[135].veinsmobility acceleration ETV
vector 913 RSUExampleScenario.node[135].veinsmobility co2emission ETV
vector 914 RSUExampleScenario.node[136].veinsmobility acceleration ETV
vector 915 RSUExampleScenario.node[136].veinsmobility co2emission ETV
vector 916 RSUExampleScenario.node[137].veinsmobility acceleration ETV
vector 917 RSUExampleScenario.node[137].veinsmobility co2emission ETV
vector 918 RSUExampleScenario.node[138].veinsmobility acceleration ETV
vector 919 RSUExampleScenario.node[138].veinsmobility co2emission ETV
vector 920 RSUExampleScenario.node[139].veinsmobility acceleration ETV
vector 921 RSUExampleScenario.node[139].veinsmobility co2emission ETV
vector 922 RSUExampleScenario.node[140].veinsmobility acceleration ETV
vector 923 RSUExampleScenario.node[140].veinsmobility co2emission ETV
vector 924 RSUExampleScenario.node[141].veinsmobility acceleration ETV
vector 925 RSUExampleScenario.node[141].veinsmobility co2emission ETV
vector 926 RSUExampleScenario.node[142].veinsmobility acceleration ETV
vector 927 RSUExampleScenario.node[142].veinsmobility co2emission ETV
vector 928 RSUExampleScenario.node[143].veinsmobility acceleration ETV
vector 929 RSUExampleScenario.node[143].veinsmobility co2emission ETV
vector 930 RSUExampleScenario.node[144].veinsmobility acceleration ETV
vector 931 RSUExampleScenario.node[144].veinsmobility co2emission ETV
vector 932 RSUExampleScenario.node[145].veinsmobility acceleration ETV
vector 933 RSUExampleScenario.node[145].veinsmobility co2emission ETV
vector 934 RSUExampleScenario.node[146].veinsmobility acceleration ETV
vector 935 RSUExampleScenario.node[146].veinsmobility co2emission ETV
vector 936 RSUExampleScenario.node[147].veinsmobility acceleration ETV
vector 937 RSUExampleScenario.node[147].veinsmobility co2emission ETV
vector 938 RSUExampleScenario.node[148].veinsmobility acceleration ETV
vector 939 RSUExampleScenario.node[148].veinsmobility co2emission ETV
vector 940 RSUExampleScenario.node[149].veinsmobility acceleration ETV
vector 941 RSUExampleScenario.node[149].veinsmobility co2emission ETV
vector 942 RSUExampleScenario.node[150].veinsmobility acceleration ETV
vector 943 RSUExampleScenario.node[150].veinsmobility co2emission ETV
vector 944 RSUExampleScenario.node[151].veinsmobility acceleration ETV
vector 945 RSUExampleScenario.node[151].veinsmobility co2emission ETV
vector 946 RSUExampleScenario.node[152].veinsmobility speed ETV
vector 947 RSUExampleScenario.node[153].veinsmobility speed ETV
vector 948 RSUExampleScenario.node[154].veinsmobility speed ETV
vector 949 RSUExampleScenario.node[155].veinsmobility speed ETV
vector 950 RSUExampleScenario.node[156].veinsmobility speed ETV
vector 951 RSUExampleScenario.node[157].veinsmobility speed ETV
vector 952 RSUExampleScenario.node[158].veinsmobility speed ETV
vector 953 RSUExampleScenario.node[159].veinsmobility speed ETV
vector 954 RSUExampleScenario.node[160].veinsmobility speed ETV
vector 955 RSUExampleScenario.node[161].veinsmobility speed ETV
vector 956 RSUExampleScenario.node[162].veinsmobility speed ETV
vector 957 RSUExampleScenario.node[163].veinsmobility speed ETV
vector 958 RSUExampleScenario.node[164].veinsmobility speed ETV
vector 959 RSUExampleScenario.node[165].veinsmobility speed ETV
vector 960 RSUExampleScenario.node[166].veinsmobility speed ETV
vector 961 RSUExampleScenario.node[167].veinsmobility speed ETV
vector 962 RSUExampleScenario.node[168].veinsmobility speed ETV
vector 963 RSUExampleScenario.node[169].veinsmobility speed ETV
vector 964 RSUExampleScenario.node[170].veinsmobility speed ETV
vector 965 RSUExampleScenario.node[171].veinsmobility speed ETV
vector 966 RSUExampleScenario.node[172].veinsmobility speed ETV
vector 967 RSUExampleScenario.node[173].veinsmobility speed ETV
vector 968 RSUExampleScenario.node[174].veinsmobility speed ETV
vector 969 RSUExampleScenario.node[175].veinsmobility speed ETV
vector 970 RSUExampleScenario.node[176].veinsmobility speed ETV
vector 971 RSUExampleScenario.node[177].veinsmobility speed ETV
vector 972 RSUExampleScenario.node[178].veinsmobility speed ETV
vector 973 RSUExampleScenario.node[179].veinsmobility speed ETV
vector 974 RSUExampleScenario.node[180].veinsmobility speed ETV
vector 975 RSUExampleScenario.node[181].veinsmobility speed ETV
vector 976 RSUExampleScenario.node[182].veinsmobility speed ETV
vector 977 RSUExampleScenario.node[183].veinsmobility speed ETV
vector 978 RSUExampleScenario.node[184].veinsmobility speed ETV
vector 979 RSUExampleScenario.node[185].veinsmobility speed ETV
vector 980 RSUExampleScenario.node[186].veinsmobility speed ETV
vector 981 RSUExampleScenario.node[187].veinsmobility speed ETV
vector 982 RSUExampleScenario.node[188].veinsmobility speed ETV
vector 983 RSUExampleScenario.node[189].veinsmobility speed ETV
vector 984 RSUExampleScenario.node[190].veinsmobility speed ETV
vector 985 RSUExampleScenario.node[191].veinsmobility speed ETV
vector 986 RSUExampleScenario.node[192].veinsmobility speed ETV
vector 987 RSUExampleScenario.node[193].veinsmobility speed ETV
vector 988 RSUExampleScenario.node[194].veinsmobility speed ETV
vector 989 RSUExampleScenario.node[195].veinsmobility speed ETV
vector 990 RSUExampleScenario.node[196].veinsmobility speed ETV
vector 991 RSUExampleScenario.node[197].veinsmobility speed ETV
vector 992 RSUExampleScenario.node[198].veinsmobility speed ETV
vector 993 RSUExampleScenario.node[199].veinsmobility speed ETV
vector 994 RSUExampleScenario.node[200].veinsmobility speed ETV
vector 995 RSUExampleScenario.node[201].veinsmobility speed ETV
vector 996 RSUExampleScenario.node[202].veinsmobility speed ETV
vector 997 RSUExampleScenario.node[203].veinsmobility speed ETV
vector 998 RSUExampleScenario.node[204].veinsmobility speed ETV
vector 999 RSUExampleScenario.node[205].veinsmobility speed ETV
vector 1000 RSUExampleScenario.node[206].veinsmobility speed ETV
vector 1001 RSUExampleScenario.node[207].veinsmobility speed ETV
vector 1002 RSUExampleScenario.node[208].veinsmobility speed ETV
vector 1003 RSUExampleScenario.node[209].veinsmobility speed ETV
vector 1004 RSUExampleScenario.node[210].veinsmobility speed ETV
vector 1005 RSUExampleScenario.node[211].veinsmobility speed ETV
vector 1006 RSUExampleScenario.node[245].veinsmobility posx ETV
vector 1007 RSUExampleScenario.node[245].veinsmobility posy ETV
vector 1008 RSUExampleScenario.node[246].veinsmobility posx ETV
vector 1009 RSUExampleScenario.node[246].veinsmobility posy ETV
vector 1010 RSUExampleScenario.node[247].veinsmobility posx ETV
vector 1011 RSUExampleScenario.node[247].veinsmobility posy ETV
vector 1012 RSUExampleScenario.node[248].veinsmobility posx ETV
vector 1013 RSUExampleScenario.node[248].veinsmobility posy ETV
vector 1014 RSUExampleScenario.node[249].veinsmobility posx ETV
vector 1015 RSUExampleScenario.node[249].veinsmobility posy ETV
vector 1016 RSUExampleScenario.node[250].veinsmobility posx ETV
vector 1017 RSUExampleScenario.node[250].veinsmobility posy ETV
vector 1018 RSUExampleScenario.node[251].veinsmobility posx ETV
vector 1019 RSUExampleScenario.node[251].veinsmobility posy ETV
vector 1020 RSUExampleScenario.node[252].veinsmobility posx ETV
vector 1021 RSUExampleScenario.node[252].veinsmobility posy ETV
vector 1022 RSUExampleScenario.node[253].veinsmobility posx ETV
vector 1023 RSUExampleScenario.node[253].veinsmobility posy ETV
vector 1024 RSUExampleScenario.node[254].veinsmobility posx ETV
vector 1025 RSUExampleScenario.node[254].veinsmobility posy ETV
vector 1026 RSUExampleScenario.node[255].veinsmobility posx ETV
vector 1027 RSUExampleScenario.node[255].veinsmobility posy ETV
vector 1028 RSUExampleScenario.node[256].veinsmobility posx ETV
vector 1029 RSUExampleScenario.node[256].veinsmobility posy ETV
vector 1030 RSUExampleScenario.node[257].veinsmobility posx ETV
vector 1031 RSUExampleScenario.node[257].veinsmobility posy ETV
vector 1032 RSUExampleScenario.node[258].veinsmobility posx ETV
vector 1033 RSUExampleScenario.node[258].veinsmobility posy ETV
vector 1034 RSUExampleScenario.node[259].veinsmobility posx ETV
vector 1035 RSUExampleScenario.node[259].veinsmobility posy ETV
vector 1036 RSUExampleScenario.node[260].veinsmobility posx ETV
vector 1037 RSUExampleScenario.node[260].veinsmobility posy ETV
vector 1038 RSUExampleScenario.node[261].veinsmobility posx ETV
vector 1039 RSUExampleScenario.node[261].veinsmobility posy ETV
vector 1040 RSUExampleScenario.node[262].veinsmobility posx ETV
vector 1041 RSUExampleScenario.node[262].veinsmobility posy ETV
vector 1042 RSUExampleScenario.node[263].veinsmobility posx ETV
vector 1043 RSUExampleScenario.node[263].veinsmobility posy ETV
vector 1044 RSUExampleScenario.node[264].veinsmobility posx ETV
vector 1045 RSUExampleScenario.node[264].veinsmobility posy ETV
vector 1046 RSUExampleScenario.node[265].veinsmobility posx ETV
vector 1047 RSUExampleScenario.node[265].veinsmobility posy ETV
vector 1048 RSUExampleScenario.node[266].veinsmobility posx ETV
vector 1049 RSUExampleScenario.node[266].veinsmobility posy ETV
vector 1050 RSUExampleScenario.node[267].veinsmobility posx ETV
vector 1051 RSUExampleScenario.node[267].veinsmobility posy ETV
vector 1052 RSUExampleScenario.node[268].veinsmobility posx ETV
vector 1053 RSUExampleScenario.node[268].veinsmobility posy ETV
vector 1054 RSUExampleScenario.node[269].veinsmobility posx ETV
vector 1055 RSUExampleScenario.node[269].veinsmobility posy ETV
vector 1056 RSUExampleScenario.node[152].veinsmobility acceleration ETV
vector 1057 RSUExampleScenario.node[152].veinsmobility co2emission ETV
vector 1058 RSUExampleScenario.node[153].veinsmobility acceleration ETV
vector 1059 RSUExampleScenario.node[153].veinsmobility co2emission ETV
vector 1060 RSUExampleScenario.node[154].veinsmobility acceleration ETV
vector 1061 RSUExampleScenario.node[154].veinsmobility co2emission ETV
vector 1062 RSUExampleScenario.node[155].veinsmobility acceleration ETV
vector 1063 RSUExampleScenario.node[155].veinsmobility co2emission ETV
vector 1064 RSUExampleScenario.node[156].veinsmobility acceleration ETV
vector 1065 RSUExampleScenario.node[156].veinsmobility co2emission ETV
vector 1066 RSUExampleScenario.node[157].veinsmobility acceleration ETV
vector 1067 RSUExampleScenario.node[157].veinsmobility co2emission ETV
vector 1068 RSUExampleScenario.node[158].veinsmobility acceleration ETV
vector 1069 RSUExampleScenario.node[158].veinsmobility co2emission ETV
vector 1070 RSUExampleScenario.node[159].veinsmobility acceleration ETV
vector 1071 RSUExampleScenario.node[159].veinsmobility co2emission ETV
vector 1072 RSUExampleScenario.node[160].veinsmobility acceleration ETV
vector 1073 RSUExampleScenario.node[160].veinsmobility co2emission ETV
vector 1074 RSUExampleScenario.node[161].veinsmobility acceleration ETV
vector 1075 RSUExampleScenario.node[161].veinsmobility co2emission ETV
vector 1076 RSUExampleScenario.node[162].veinsmobility acceleration ETV
vector 1077 RSUExampleScenario.node[162].veinsmobility co2emission ETV
vector 1078 RSUExampleScenario.node[163].veinsmobility acceleration ETV
vector 1079 RSUExampleScenario.node[163].veinsmobility co2emission ETV
vector 1080 RSUExampleScenario.node[164].veinsmobility acceleration ETV
vector 1081 RSUExampleScenario.node[164].veinsmobility co2emission ETV
vector 1082 RSUExampleScenario.node[165].veinsmobility acceleration ETV
vector 1083 RSUExampleScenario.node[165].veinsmobility co2emission ETV
vector 1084 RSUExampleScenario.node[166].veinsmobility acceleration ETV
vector 1085 RSUExampleScenario.node[166].veinsmobility co2emission ETV
vector 1086 RSUExampleScenario.node[167].veinsmobility acceleration ETV
vector 1087 RSUExampleScenario.node[167].veinsmobility co2emission ETV
vector 1088 RSUExampleScenario.node[168].veinsmobility acceleration ETV
vector 1089 RSUExampleScenario.node[168].veinsmobility co2emission ETV
vector 1090 RSUExampleScenario.node[169].veinsmobility acceleration ETV
vector 1091 RSUExampleScenario.node[169].veinsmobility co2emission ETV
vector 1092 RSUExampleScenario.node[170].veinsmobility acceleration ETV
vector 1093 RSUExampleScenario.node[170].veinsmobility co2emission ETV
vector 1094 RSUExampleScenario.node[171].veinsmobility acceleration ETV
vector 1095 RSUExampleScenario.node[171].veinsmobility co2emission ETV
vector 1096 RSUExampleScenario.node[172].veinsmobility acceleration ETV
vector 1097 RSUExampleScenario.node[172].veinsmobility co2emission ETV
vector 1098 RSUExampleScenario.node[173].veinsmobility acceleration ETV
vector 1099 RSUExampleScenario.node[173].veinsmobility co2emission ETV
vector 1100 RSUExampleScenario.node[174].veinsmobility acceleration ETV
vector 1101 RSUExampleScenario.node[174].veinsmobility co2emission ETV
vector 1102 RSUExampleScenario.node[175].veinsmobility acceleration ETV
vector 1103 RSUExampleScenario.node[175].veinsmobility co2emission ETV
vector 1104 RSUExampleScenario.node[176].veinsmobility acceleration ETV
vector 1105 RSUExampleScenario.node[176].veinsmobility co2emission ETV
vector 1106 RSUExampleScenario.node[177].veinsmobility acceleration ETV
vector 1107 RSUExampleScenario.node[177].veinsmobility co2emission ETV
vector 1108 RSUExampleScenario.node[178].veinsmobility acceleration ETV
vector 1109 RSUExampleScenario.node[178].veinsmobility co2emission ETV
vector 1110 RSUExampleScenario.node[179].veinsmobility acceleration ETV
vector 1111 RSUExampleScenario.node[179].veinsmobility co2emission ETV
vector 1112 RSUExampleScenario.node[180].veinsmobility acceleration ETV
vector 1113 RSUExampleScenario.node[180].veinsmobility co2emission ETV
vector 1114 RSUExampleScenario.node[181].veinsmobility acceleration ETV
vector 1115 RSUExampleScenario.node[181].veinsmobility co2emission ETV
vector 1116 RSUExampleScenario.node[182].veinsmobility acceleration ETV
vector 1117 RSUExampleScenario.node[182].veinsmobility co2emission ETV
vector 1118 RSUExampleScenario.node[183].veinsmobility acceleration ETV
vector 1119 RSUExampleScenario.node[183].veinsmobility co2emission ETV
vector 1120 RSUExampleScenario.node[184].veinsmobility acceleration ETV
vector 1121 RSUExampleScenario.node[184].veinsmobility co2emission ETV
vector 1122 RSUExampleScenario.node[185].veinsmobility acceleration ETV
vector 1123 RSUExampleScenario.node[185].veinsmobility co2emission ETV
vector 1124 RSUExampleScenario.node[186].veinsmobility acceleration ETV
vector 1125 RSUExampleScenario.node[186].veinsmobility co2emission ETV
vector 1126 RSUExampleScenario.node[187].veinsmobility acceleration ETV
vector 1127 RSUExampleScenario.node[187].veinsmobility co2emission ETV
vector 1128 RSUExampleScenario.node[188].veinsmobility acceleration ETV
vector 1129 RSUExampleScenario.node[188].veinsmobility co2emission ETV
vector 1130 RSUExampleScenario.node[189].veinsmobility acceleration ETV
vector 1131 RSUExampleScenario.node[189].veinsmobility co2emission ETV
vector 1132 RSUExampleScenario.node[190].veinsmobility acceleration ETV
vector 1133 RSUExampleScenario.node[190].veinsmobility co2emission ETV
vector 1134 RSUExampleScenario.node[191].veinsmobility acceleration ETV
vector 1135 RSUExampleScenario.node[191].veinsmobility co2emission ETV
vector 1136 RSUExampleScenario.node[192].veinsmobility acceleration ETV
vector 1137 RSUExampleScenario.node[192].veinsmobility co2emission ETV
vector 1138 RSUExampleScenario.node[193].veinsmobility acceleration ETV
vector 1139 RSUExampleScenario.node[193].veinsmobility co2emission ETV
vector 1140 RSUExampleScenario.node[194].veinsmobility acceleration ETV
vector 1141 RSUExampleScenario.node[194].veinsmobility co2emission ETV
vector 1142 RSUExampleScenario.node[195].veinsmobility acceleration ETV
vector 1143 RSUExampleScenario.node[195].veinsmobility co2emission ETV
vector 1144 RSUExampleScenario.node[196].veinsmobility acceleration ETV
vector 1145 RSUExampleScenario.node[196].veinsmobility co2emission ETV
vector 1146 RSUExampleScenario.node[197].veinsmobility acceleration ETV
vector 1147 RSUExampleScenario.node[197].veinsmobility co2emission ETV
vector 1148 RSUExampleScenario.node[198].veinsmobility acceleration ETV
vector 1149 RSUExampleScenario.node[198].veinsmobility co2emission ETV
vector 1150 RSUExampleScenario.node[199].veinsmobility acceleration ETV
vector 1151 RSUExampleScenario.node[199].veinsmobility co2emission ETV
vector 1152 RSUExampleScenario.node[200].veinsmobility acceleration ETV
vector 1153 RSUExampleScenario.node[200].veinsmobility co2emission ETV
vector 1154 RSUExampleScenario.node[201].veinsmobility acceleration ETV
vector 1155 RSUExampleScenario.node[201].veinsmobility co2emission ETV
vector 1156 RSUExampleScenario.node[202].veinsmobility acceleration ETV
vector 1157 RSUExampleScenario.node[202].veinsmobility co2emission ETV
vector 1158 RSUExampleScenario.node[203].veinsmobility acceleration ETV
vector 1159 RSUExampleScenario.node[203].veinsmobility co2emission ETV
vector 1160 RSUExampleScenario.node[204].veinsmobility acceleration ETV
vector 1161 RSUExampleScenario.node[204].veinsmobility co2emission ETV
vector 1162 RSUExampleScenario.node[205].veinsmobility acceleration ETV
vector 1163 RSUExampleScenario.node[205].veinsmobility co2emission ETV
vector 1164 RSUExampleScenario.node[206].veinsmobility acceleration ETV
vector 1165 RSUExampleScenario.node[206].veinsmobility co2emission ETV
vector 1166 RSUExampleScenario.node[207].veinsmobility acceleration ETV
vector 1167 RSUExampleScenario.node[207].veinsmobility co2emission ETV
vector 1168 RSUExampleScenario.node[208].veinsmobility acceleration ETV
vector 1169 RSUExampleScenario.node[208].veinsmobility co2emission ETV
vector 1170 RSUExampleScenario.node[209].veinsmobility acceleration ETV
vector 1171 RSUExampleScenario.node[209].veinsmobility co2emission ETV
vector 1172 RSUExampleScenario.node[210].veinsmobility acceleration ETV
vector 1173 RSUExampleScenario.node[210].veinsmobility co2emission ETV
vector 1174 RSUExampleScenario.node[211].veinsmobility acceleration ETV
vector 1175 RSUExampleScenario.node[211].veinsmobility co2emission ETV
vector 1176 RSUExampleScenario.node[212].veinsmobility speed ETV
vector 1177 RSUExampleScenario.node[213].veinsmobility speed ETV
vector 1178 RSUExampleScenario.node[214].veinsmobility speed ETV
vector 1179 RSUExampleScenario.node[215].veinsmobility speed ETV
vector 1180 RSUExampleScenario.node[216].veinsmobility speed ETV
vector 1181 RSUExampleScenario.node[217].veinsmobility speed ETV
vector 1182 RSUExampleScenario.node[218].veinsmobility speed ETV
vector 1183 RSUExampleScenario.node[219].veinsmobility speed ETV
vector 1184 RSUExampleScenario.node[220].veinsmobility speed ETV
vector 1185 RSUExampleScenario.node[221].veinsmobility speed ETV
vector 1186 RSUExampleScenario.node[222].veinsmobility speed ETV
vector 1187 RSUExampleScenario.node[223].veinsmobility speed ETV
vector 1188 RSUExampleScenario.node[224].veinsmobility speed ETV
[...]
2768	1280946 89 11673613 12135978 20 22 3 0.973 3.2179604506744 6.5016102160112 16.641100800156
2769	1281035 100 11673613 12135978 20 22 3 -1.9444444444444 2.4114797425224 2.0733736120915 12.176421525194
2770	1281135 89 11673613 12135978 20 22 3 0.973 3.9503156804708 7.7948978722242 24.797707259369
2771	1281224 99 11673613 12135978 20 22 3 2.2463537618751 2.4951239799848 7.0925745816203 16.799405248917
2772	1281323 98 11673613 12135978 20 22 3 4.249736591545 6.9760443376478 16.533388541294 94.89615426238
2773	1281421 99 11673613 12135978 20 22 3 -1.9444444444444 2.4403370451997 2.6209240711462 14.251867841857
2774	1281520 89 11673613 12135978 20 22 3 0.973 3.7387287599594 7.8573811203632 24.819950513062
2775	1281609 100 11673613 12135978 20 22 3 0.64066967202333 2.1156560490141 4.3102352045661 7.3010928293807
2776	1281709 99 11673613 12135978 20 22 3 2.3472099506476 4.1190805553642 8.9534668871306 28.662265524794
2777	1281808 100 11673613 12135978 20 22 3 -3.9530366349183 1.5695220064372 -0.91400681302696 20.249351185378
2778	1281908 89 11673613 12135978 20 22 3 0.973 2.7620578095724 5.964300859346 13.545216918384
2779	1281997 100 11673613 12135978 20 22 3 0.03559776398405 1.9800422084285 3.7130399206291 6.8030009321646
2780	1282097 99 11673613 12135978 20 22 3 2.3607145923655 5.6218924703542 11.741464889026 51.307660493219
2781	1282196 99 11673613 12135978 20 22 3 1.6824854522012 4.5944182173116 9.4062978278613 33.732543850739
2782	1282295 98 11673613 12135978 20 22 3 2.173317502276 5.7096644895617 11.745434279926 52.24211522682
2783	1282393 98 11673613 12135978 20 22 3 2.2416350679705 5.9605576053727 12.401921464619 58.190896665194
2784	1282491 99 11673613 12135978 20 22 3 2.0151722515235 5.9387900891947 11.552894576779 52.282460166582
2785	1282590 98 11673613 12135978 20 22 3 1.3309004459064 5.2563412636984 10.427946033422 44.15142918036
2786	1282688 99 11673613 12135978 20 22 3 2.3397781100124 5.8001068922458 11.907269599545 53.308988269443
2787	1282787 98 11673613 12135978 20 22 3 1.5480405311799 5.9208733058535 11.27555588535 51.943693874159
2788	1282885 99 11673613 12135978 20 22 3 2.1416250512935 5.8623640457634 11.541522743064 51.468014362019
2789	1282984 99 11673613 12135978 20 22 3 1.8269580175867 6.1358167433646 12.217442514468 59.088220398992
2790	1283083 98 11673613 12135978 20 22 3 2.1859873869456 5.655125038675 11.736680492712 51.934430624278
2791	1283181 99 11673613 12135978 20 22 3 1.3927647721488 3.5453205588041 6.5389614453125 17.071895908745
2792	1283280 99 11673613 12135978 20 22 3 1.3666258500157 4.4548035779502 7.6942201390131 25.220286179434
2793	1283379 97 11673613 12135978 20 22 3 2.0885992937954 6.22610577757 12.737497613882 62.687734037671
2794	1283476 99 11673613 12135978 20 22 3 1.5985701159393 3.5430145603837 7.2370559332246 19.499378379166
2795	1283575 99 11673613 12135978 20 22 3 1.4533533025766 5.2897593665868 10.541049734363 44.518115929723
2796	1283674 99 11673613 12135978 20 22 3 1.4496581502026 5.3073530419264 9.8076187956845 39.575711814965
2797	1283773 100 11673613 12135978 20 22 3 0.78290935608976 4.8840940368827 7.9646789983003 29.746634808285
2798	1283873 85 11673613 12135978 20 22 3 0 3.2827930758281 4.9713671143945 13.628012662425
2799	1283958 99 11673613 12135978 20 22 3 2.0583885187283 6.1322365036933 12.229376636515 58.152802431606
2800	1284057 98 11673613 12135978 20 22 3 1.3638389604632 5.2397255346528 10.169131056522 42.028045292387
2801	1284155 99 11673613 12135978 20 22 3 2.0580421634303 4.0024866078747 8.2307598808832 24.965339661654
2802	1284254 99 11673613 12135978 20 22 3 2.4266316460446 7.3193042409141 14.653579060454 83.545717235003
2803	1284353 100 11673613 12135978 20 22 3 0.15000001984234 2.4542887537326 4.6987332378618 10.432730906633
2804	1284453 98 11673613 12135978 20 22 3 1.6251783114159 3.874989603681 9.1710496335544 31.132121563438
2805	1284551 57 11890678 12135978 21 22 2 200.04557093049 201.95 401.99557093049 80802.032948905
2806	1284608 48 11890678 12135978 21 22 2 410.15 410.15 820.3 336446.045
2807	1284656 48 11890678 12135978 21 22 2 310.15 310.15 620.3 192386.045
2808	1284704 56 11890678 12135978 21 22 2 48.05 49.563902792754 97.613902792754 4765.3829600495
2809	1284760 56 11890678 12135978 21 22 2 48.05 49.807416088646 97.857416088646 4789.5811974275
2810	1284816 48 11890678 12135978 21 22 2 339.85 339.85 679.7 230996.045
2811	1284864 56 11890678 12135978 21 22 2 199.6912813379 201.95 401.6412813379 80660.410342371
2812	1284920 48 11890678 12135978 21 22 2 210.15 213.45 423.6 89723.925
2813	1284968 57 11890678 12135978 21 22 2 399.41326750487 401.95 801.36326750487 321094.76075891
2814	1285025 48 11890678 12135978 21 22 2 310.15 313.45 623.6 194443.925
2815	1285073 57 11890678 12135978 21 22 2 401.73363039605 403.45 805.18363039605 324161.81229119
2816	1285130 46 11890678 12135978 21 22 2 10.15 10.15 20.3 206.045
2817	1285176 57 11890678 12135978 21 22 2 100.16141337727 101.95 202.11141337727 20426.111229732
2818	1285233 46 11890678 12135978 21 22 2 10.15 10.15 20.3 206.045
2819	1285279 46 11890678 12135978 21 22 2 10.15 13.45 23.6 283.925
2820	1285325 56 11890678 12135978 21 22 2 46.55 48.962046976341 95.512046976341 4564.1845441134
2821	1285381 57 11890678 12135978 21 22 2 148.05 150.35148768383 298.40148768383 44524.372348741
2822	1285438 48 11890678 12135978 21 22 2 339.85 339.85 679.7 230996.045
2823	1285486 67 11890678 12135978 21 22 2 -1.9444444444444 1.6618021842325 -0.28264226021193 6.5424506970508
2824	1285553 55 11890678 12135978 21 22 2 0.973 1.872133400569 2.845133400569 4.4516124695261
2825	1285608 66 11890678 12135978 21 22 2 1.3981432339409 1.8630346440477 3.2611778779887 5.4257025875369
2826	1285674 66 11890678 12135978 21 22 2 2.5627900612331 3.9217953999343 6.4845854611674 21.948372056901
2827	1285740 66 11890678 12135978 21 22 2 1.4469087061472 1.4650240589632 2.9119327651104 4.2398402972656
2828	1285806 66 11890678 12135978 21 22 2 2.3550284473175 2.9627487397139 5.3177771870313 14.324039082351
2829	1285872 66 11890678 12135978 21 22 2 1.6891347858123 1.8472122014733 3.5363469872857 6.2653692419132
2830	1285938 66 11890678 12135978 21 22 2 2.8739805740552 3.9444471258873 6.8184276999425 23.818427468967
2831	1286004 66 11890678 12135978 21 22 2 1.7608288140967 1.9580937233055 3.7189225374022 6.9346491418018
2832	1286070 66 11890678 12135978 21 22 2 3.3012922407564 3.9465209052591 7.2478131460156 26.473557714526
2833	1286136 65 11890678 12135978 21 22 2 1.583759984537 2.3398578531342 3.9236178376712 7.9832304614943
2834	1286201 66 11890678 12135978 21 22 2 2.6615812980227 4.7647544299065 7.4263357279292 29.786899783298
2835	1286267 66 11890678 12135978 21 22 2 1.4156369398814 2.5098038779106 3.925440817792 8.3031434511318
2836	1286333 66 11890678 12135978 21 22 2 3.1702799895773 3.6236081542938 6.7938881438712 23.181211268179
2837	1286399 66 11890678 12135978 21 22 2 1.4276064872742 2.0327222949592 3.4603287822334 6.1700202109317
2838	1286465 66 11890678 12135978 21 22 2 2.5928588304578 4.2492139699947 6.8420728004525 24.778736277481
2839	1286531 66 11890678 12135978 21 22 2 2.1142312575364 2.2586015171371 4.3728327746736 9.5712546235583
2840	1286597 64 11890678 12135978 21 22 2 3.370770742135 4.431658685989 7.802429428124 31.001694105135
2841	1286661 66 11890678 12135978 21 22 2 1.3959085947135 2.3248303997563 3.7207389944699 7.3533971924263
2842	1286727 66 11890678 12135978 21 22 2 2.4748159053508 4.6960018735751 7.1708177789259 28.177147361998
2843	1286793 64 11890678 12135978 21 22 2 1.8811489898479 2.42770973593 4.3088587257778 9.4324960839348
2844	1286857 65 11890678 12135978 21 22 2 3.811672783446 4.2090464725066 8.0207192559526 32.244921615783
2845	1286922 66 11890678 12135978 21 22 2 1.7095806801459 1.7595569715835 3.4691376517294 6.0187068381762
2846	1286988 66 11890678 12135978 21 22 2 2.9083922511353 3.7975843043454 6.7059765554806 22.880392035074
2847	1287054 67 11890678 12135978 21 22 2 -1.9444444444444 2.1525557866553 0.20811134221084 8.414360612194
2848	1287121 55 11890678 12135978 21 22 2 0.973 3.124334437512 4.097334437512 10.708194677424
2849	1287176 67 11890678 12135978 21 22 2 -3.0881777279345 2.5820128669031 -0.50616486103141 16.203632124164
2850	1287243 56 11890678 12135978 21 22 2 0.973 4.1051354439549 5.0781354439549 17.798866013215
2851	1287299 66 11890678 12135978 21 22 2 1.8033132350538 2.3341932487208 4.1375064837746 8.7003967460941
2852	1287365 65 11890678 12135978 21 22 2 3.819347890525 4.1384992646979 7.9578471552229 31.714594472763
2853	1287430 67 11890678 12135978 21 22 2 -1.9444444444444 1.4475433034822 -0.49690114096221 5.8762458129871
2854	1287497 56 11890678 12135978 21 22 2 0.973 2.5210323473329 3.4940323473329 7.3023330962988
2855	1287553 66 11890678 12135978 21 22 2 1.4918223013869 2.3445837626234 3.8364060640102 7.7226067988723
2856	1287619 66 11890678 12135978 21 22 2 3.2806743344243 3.4442774063101 6.7249517407343 22.625870940168
2857	1287685 65 11890678 12135978 21 22 2 1.600949453353 2.2567454383709 3.8576948917238 7.6559391257988
2858	1287750 66 11890678 12135978 21 22 2 2.4367962355173 4.2663772113324 6.7031734468497 24.139950402808
2859	1287816 66 11890678 12135978 21 22 2 -4.101184680793 2.5864184315549 -1.5147662492381 23.509276089058
2860	1287882 56 11890678 12135978 21 22 2 0.973 4.4007583953653 5.3737583953653 20.313403454378
2861	1287938 67 11890678 12135978 21 22 2 -3.2827930758281 1.5942190372618 -1.6885740385663 13.318264717473
2862	1288005 56 11890678 12135978 21 22 2 0.973 2.5329014805567 3.5059014805567 7.3623189102062
2863	1288061 66 11890678 12135978 21 22 2 1.9803630953655 2.0934848895995 4.073847984965 8.3045169724669
2864	1288127 66 11890678 12135978 21 22 2 3.2384800382679 4.5210179452532 7.7594979835212 30.927356219562
2865	1288193 66 11890678 12135978 21 22 2 1.6741589732468 2.2017276009428 3.8758865741896 7.6504126964563
2866	1288259 65 11890678 12135978 21 22 2 3.178138385845 3.4901377221997 6.6682761080447 22.281624919503
2867	1288324 67 11890678 12135978 21 22 2 -1.9444444444444 1.8322554982966 -0.11218894614786 7.1380244085689
2868	1288391 56 11890678 12135978 21 22 2 0.973 3.0763955559091 4.0493955559091 10.410938616417
2869	1288447 66 11890678 12135978 21 22 2 2.4116610674188 2.4810115274508 4.8926725948695 11.971527303447
2870	1288513 65 11890678 12135978 21 22 2 4.2920604749176 5.753361182653 10.045421657571 51.522948018408
2871	1288578 67 11890678 12135978 21 22 2 -1.9444444444444 2.3042887338903 0.35984428944584 9.0906107666645
2872	1288645 56 11890678 12135978 21 22 2 0.973 2.5927095436395 3.5657095436395 7.6688717776795
2873	1288701 68 11890678 12135978 21 22 2 -0.20410788522357 2.2498112922651 2.0457034070415 5.1033108796139
2874	1288769 56 11890678 12135978 21 22 2 0.973 3.4033414545041 4.3763414545041 12.529462055946
2875	1288825 66 11890678 12135978 21 22 2 1.3488842461957 3.2009855203563 4.549869766552 12.065797011166
2876	1288891 65 11890678 12135978 21 22 2 2.470119509683 3.9512582265073 6.4213777361903 21.713931964658
2877	1288956 66 11890678 12135978 21 22 2 2.3577858023345 4.0808735241881 6.4386593265226 22.212682610109
2878	1289022 66 11890678 12135978 21 22 2 1.6976083925925 3.2212079101475 4.91881630274 13.258054654997
2879	1289088 66 11890678 12135978 21 22 2 2.4408454273129 3.9524827937596 6.3933282210724 21.579846635
2880	1289154 65 11890678 12135978 21 22 2 2.0715068287216 4.231401420664 6.3029082493857 22.195898524238
2881	1289219 66 11890678 12135978 21 22 2 2.0430863440502 4.1306857916061 6.1737721356563 21.236766918221
2882	1289285 66 11890678 12135978 21 22 2 1.6501172067365 3.3088621072937 4.9589793140301 13.671455241052
2883	1289351 65 11890678 12135978 21 22 2 1.4340417853789 2.789885671949 4.223927457328 9.8399379047592
2884	1289416 65 11890678 12135978 21 22 2 2.3403848901624 3.866924175038 6.2073090652004 20.430504009594
2885	1289481 66 11890678 12135978 21 22 2 1.3997986114584 3.2770142405061 4.6768128519645 12.698258485121
2886	1289547 66 11890678 12135978 21 22 2 2.5200870512519 5.0446138336556 7.5647008849075 31.798967476597
2887	1289613 66 11890678 12135978 21 22 2 1.3538312596735 3.1026978748385 4.4565291345119 11.459593182196
2888	1289679 66 11890678 12135978 21 22 2 2.5513998823939 5.1329805318732 7.6843804142671 32.857130500469
2889	1289745 66 11890678 12135978 21 22 2 1.6375702884747 3.8949514607433 5.532521749218 17.852283331242
2890	1289811 64 11890678 12135978 21 22 2 2.14947608863 3.7023810700979 5.8518571587279 18.327873043812
2891	1289875 66 11890678 12135978 21 22 2 1.6090151394252 3.5725069460459 5.1815220854711 15.351735598446
2892	1289941 65 11890678 12135978 21 22 2 1.525525777787 3.5037802440813 5.0293060218683 14.603704897507
2893	1290006 67 11890678 12135978 21 22 2 0.65195331560034 2.5963977600448 3.2483510756451 7.1663244540878
2894	1290073 66 11890678 12135978 21 22 2 1.6272543688072 4.0094486336689 5.6367030024761 18.723635126832
2895	1290139 66 11890678 12135978 21 22 2 2.1578611264471 4.6272943374468 6.7851554638939 26.068217526399
2896	1290205 24 12135978 12135978 22 22 1 301.95 301.95 301.95 91173.8025
2897	1290229 24 12135978 12135978 22 22 1 410.15 410.15 410.15 168223.0225
2898	1290253 24 12135978 12135978 22 22 1 401.95 401.95 401.95 161563.8025
2899	1290277 24 12135978 12135978 22 22 1 210.15 210.15 210.15 44163.0225
2900	1290301 24 12135978 12135978 22 22 1 248.05 248.05 248.05 61528.8025
2901	1290325 24 12135978 12135978 22 22 1 139.85 139.85 139.85 19558.0225
2902	1290349 24 12135978 12135978 22 22 1 210.15 210.15 210.15 44163.0225
2903	1290373 24 12135978 12135978 22 22 1 348.05 348.05 348.05 121138.8025
2904	1290397 23 12135978 12135978 22 22 1 48.05 48.05 48.05 2308.8025
2905	1290420 24 12135978 12135978 22 22 1 239.85 239.85 239.85 57528.0225
2906	1290444 24 12135978 12135978 22 22 1 101.95 101.95 101.95 10393.8025
2907	1290468 24 12135978 12135978 22 22 1 410.15 410.15 410.15 168223.0225
2908	1290492 24 12135978 12135978 22 22 1 201.95 201.95 201.95 40783.8025
2909	1290516 24 12135978 12135978 22 22 1 210.15 210.15 210.15 44163.0225
2910	1290540 24 12135978 12135978 22 22 1 310.15 310.15 310.15 96193.0225
2911	1290564 24 12135978 12135978 22 22 1 248.05 248.05 248.05 61528.8025
2912	1290588 23 12135978 12135978 22 22 1 10.15 10.15 10.15 103.0225
2913	1290611 23 12135978 12135978 22 22 1 46.55 46.55 46.55 2166.9025
2914	1290634 24 12135978 12135978 22 22 1 401.95 401.95 401.95 161563.8025
2915	1290658 24 12135978 12135978 22 22 1 310.15 310.15 310.15 96193.0225
2916	1290682 24 12135978 12135978 22 22 1 348.05 348.05 348.05 121138.8025
2917	1290706 24 12135978 12135978 22 22 1 339.85 339.85 339.85 115498.0225
2918	1290730 33 12135978 12135978 22 22 1 1.8521012741607 1.8521012741607 1.8521012741607 3.4302791297476
2919	1290763 32 12135978 12135978 22 22 1 2.696225806249 2.696225806249 2.696225806249 7.2696335982832
2920	1290795 33 12135978 12135978 22 22 1 1.4811387168244 1.4811387168244 1.4811387168244 2.1937718984761
2921	1290828 33 12135978 12135978 22 22 1 2.7167265690168 2.7167265690168 2.7167265690168 7.3806032508016
2922	1290861 33 12135978 12135978 22 22 1 1.7230877218535 1.7230877218535 1.7230877218535 2.9690312972023
2923	1290894 33 12135978 12135978 22 22 1 3.0077799331536 3.0077799331536 3.0077799331536 9.0467401262814
2924	1290927 32 12135978 12135978 22 22 1 1.523599517555 1.523599517555 1.523599517555 2.3213554898938
2925	1290959 33 12135978 12135978 22 22 1 2.4512659530718 2.4512659530718 2.4512659530718 6.0087047726888
2926	1290992 33 12135978 12135978 22 22 1 1.5116373664467 1.5116373664467 1.5116373664467 2.2850475276378
2927	1291025 33 12135978 12135978 22 22 1 2.7462794953978 2.7462794953978 2.7462794953978 7.5420510668423
2928	1291058 33 12135978 12135978 22 22 1 2.1598945919424 2.1598945919424 2.1598945919424 4.6651446483022
2929	1291091 33 12135978 12135978 22 22 1 3.5237124652157 3.5237124652157 3.5237124652157 12.416549537516
2930	1291124 33 12135978 12135978 22 22 1 2.0875994475558 2.0875994475558 2.0875994475558 4.3580714534354
2931	1291157 33 12135978 12135978 22 22 1 3.3939705426065 3.3939705426065 3.3939705426065 11.519036044081
2932	1291190 33 12135978 12135978 22 22 1 1.6587449005572 1.6587449005572 1.6587449005572 2.7514346451246
2933	1291223 33 12135978 12135978 22 22 1 2.5957086592122 2.5957086592122 2.5957086592122 6.737703443509
2934	1291256 33 12135978 12135978 22 22 1 1.3558438865701 1.3558438865701 1.3558438865701 1.8383126447494
2935	1291289 33 12135978 12135978 22 22 1 2.1582086025992 2.1582086025992 2.1582086025992 4.6578643723334
2936	1291322 33 12135978 12135978 22 22 1 1.5265392848756 1.5265392848756 1.5265392848756 2.3303221882686
2937	1291355 33 12135978 12135978 22 22 1 2.7245078124955 2.7245078124955 2.7245078124955 7.4229428203488
2938	1291388 33 12135978 12135978 22 22 1 1.8772156290477 1.8772156290477 1.8772156290477 3.523938517941
2939	1291421 33 12135978 12135978 22 22 1 2.7538847234956 2.7538847234956 2.7538847234956 7.5838810703024
2940	1291454 33 12135978 12135978 22 22 1 2.5245267824037 2.5245267824037 2.5245267824037 6.3732354750736
2941	1291487 33 12135978 12135978 22 22 1 4.4344097187108 4.4344097187108 4.4344097187108 19.663989553397
2942	1291520 32 12135978 12135978 22 22 1 1.748866615165 1.748866615165 1.748866615165 3.0585344376388
2943	1291552 33 12135978 12135978 22 22 1 2.5701487361456 2.5701487361456 2.5701487361456 6.605664525911
2944	1291585 33 12135978 12135978 22 22 1 2.5815806494793 2.5815806494793 2.5815806494793 6.6645586497659
2945	1291618 32 12135978 12135978 22 22 1 4.563648381588 4.563648381588 4.563648381588 20.826886550771
2946	1291650 33 12135978 12135978 22 22 1 2.2573811722687 2.2573811722687 2.2573811722687 5.095769756913
2947	1291683 33 12135978 12135978 22 22 1 3.4223170406847 3.4223170406847 3.4223170406847 11.712253926961
2948	1291716 33 12135978 12135978 22 22 1 1.5529049814679 1.5529049814679 1.5529049814679 2.4115138814677
2949	1291749 33 12135978 12135978 22 22 1 2.6789076575247 2.6789076575247 2.6789076575247 7.1765462375447
2950	1291782 33 12135978 12135978 22 22 1 1.9634918066207 1.9634918066207 1.9634918066207 3.8553000746667
2951	1291815 32 12135978 12135978 22 22 1 2.977065506111 2.977065506111 2.977065506111 8.8629190276762
2952	1291847 33 12135978 12135978 22 22 1 1.9782544662943 1.9782544662943 1.9782544662943 3.9134907334134
2953	1291880 33 12135978 12135978 22 22 1 2.9534558599024 2.9534558599024 2.9534558599024 8.722901516392
2954	1291913 34 12135978 12135978 22 22 1 -1.9444444444444 -1.9444444444444 -1.9444444444444 3.7808641975309
2955	1291947 23 12135978 12135978 22 22 1 0.973 0.973 0.973 0.946729
2956	1291970 33 12135978 12135978 22 22 1 2.3821942648618 2.3821942648618 2.3821942648618 5.6748495155402
2957	1292003 33 12135978 12135978 22 22 1 3.6112298616874 3.6112298616874 3.6112298616874 13.040981113943
2958	1292036 33 12135978 12135978 22 22 1 2.4694332109997 2.4694332109997 2.4694332109997 6.0981003835883
2959	1292069 33 12135978 12135978 22 22 1 4.0962309105304 4.0962309105304 4.0962309105304 16.779107672385
2960	1292102 33 12135978 12135978 22 22 1 1.9044290695107 1.9044290695107 1.9044290695107 3.6268500807972
2961	1292135 33 12135978 12135978 22 22 1 1.5139027927537 1.5139027927537 1.5139027927537 2.2919016659073
2962	1292168 33 12135978 12135978 22 22 1 1.7574160886463 1.7574160886463 1.7574160886463 3.0885113086328
2963	1292201 33 12135978 12135978 22 22 1 2.2587186621036 2.2587186621036 2.2587186621036 5.1018099945352
2964	1292234 33 12135978 12135978 22 22 1 2.5367324951338 2.5367324951338 2.5367324951338 6.4350117518676
2965	1292267 33 12135978 12135978 22 22 1 1.7163696039468 1.7163696039468 1.7163696039468 2.9459246173525
2966	1292300 33 12135978 12135978 22 22 1 1.7885866227327 1.7885866227327 1.7885866227327 3.1990421070183
2967	1292333 33 12135978 12135978 22 22 1 2.4120469763409 2.4120469763409 2.4120469763409 5.8179706160754
2968	1292366 33 12135978 12135978 22 22 1 2.3014876838308 2.3014876838308 2.3014876838308 5.2968455588248

