version 2
run General-0-20230208-22:19:55-7744
attr configname General
attr datetime 20230208-22:19:55
attr experiment General
attr inifile omnetpp.ini
attr iterationvars ""
attr iterationvarsf ""
attr measurement ""
attr network RSUExampleScenario
attr processid 7744
attr repetition 0
attr replication #0
attr resultdir results
attr runnumber 0
attr seedset 0
param *.playgroundSizeX 500m
param *.playgroundSizeY 500m
param *.playgroundSizeZ 50m
param *.annotations.draw true
param *.manager.updateInterval 1s
param *.manager.host "\"localhost\""
param *.manager.port 9999
param *.manager.autoShutdown true
param *.manager.launchConfig "xmldoc(\"manhattan.launchd.xml\")"
param *.rsu[0].mobility.x 250
param *.rsu[0].mobility.y 250
param *.rsu[0].mobility.z 3
param *.rsu[*].applType "\"LeaderApp\""
param *.rsu[*].appl.headerLength "80 bit"
param *.rsu[*].appl.windowTime 15.0
param *.rsu[*].appl.fileName "\"baseline_manhatan_dbscan_modificado_1_lider\""
param *.rsu[*].appl.strategy "\"none\""
param *.rsu[*].appl.sendBeacons true
param *.rsu[*].appl.dataOnSch false
param *.rsu[*].appl.beaconInterval 1s
param *.rsu[*].appl.beaconUserPriority 7
param *.rsu[*].appl.dataUserPriority 5
param *.connectionManager.sendDirect true
param *.connectionManager.maxInterfDist 2600m
param *.**.nic.mac1609_4.useServiceChannel false
param *.**.nic.mac1609_4.txPower 200mW
param *.**.nic.mac1609_4.bitrate 6Mbps
param *.**.nic.phy80211p.minPowerLevel -110dBm
param *.**.nic.phy80211p.useNoiseFloor true
param *.**.nic.phy80211p.noiseFloor -98dBm
param *.**.nic.phy80211p.decider "xmldoc(\"config.xml\")"
param *.**.nic.phy80211p.analogueModels "xmldoc(\"config.xml\")"
param *.**.nic.phy80211p.usePropagationDelay true
param *.node[*].applType "\"BeaconApp\""
param *.node[*].appl.headerLength "80 bit"
param *.node[*].appl.windowTime 5.0
param *.node[*].appl.sendBeacons true
param *.node[*].appl.dataOnSch false
param *.node[*].appl.beaconInterval 1s
param *.node[*].veinsmobility.x 0
param *.node[*].veinsmobility.y 0
param *.node[*].veinsmobility.z 0

scalar RSUExampleScenario.node[206].appl generatedWSMs 0
scalar RSUExampleScenario.node[206].appl receivedWSMs 0
scalar RSUExampleScenario.node[206].appl generatedBSMs 8
scalar RSUExampleScenario.node[206].appl receivedBSMs 2415
scalar RSUExampleScenario.node[206].appl generatedWSAs 0
scalar RSUExampleScenario.node[206].appl receivedWSAs 0
scalar RSUExampleScenario.node[206].nic.phy80211p busyTime 0.031589999999999
scalar RSUExampleScenario.node[206].nic.mac1609_4 ReceivedUnicastPackets 0
scalar RSUExampleScenario.node[206].nic.mac1609_4 ReceivedBroadcasts 2415
scalar RSUExampleScenario.node[206].nic.mac1609_4 SentPackets 7
scalar RSUExampleScenario.node[206].nic.mac1609_4 SentAcknowledgements 0
scalar RSUExampleScenario.node[206].nic.mac1609_4 RetriesExceeded 0
scalar RSUExampleScenario.node[206].nic.mac1609_4 SNIRLostPackets 15
scalar RSUExampleScenario.node[206].nic.mac1609_4 RXTXLostPackets 0
scalar RSUExampleScenario.node[206].nic.mac1609_4 TotalLostPackets 15
scalar RSUExampleScenario.node[206].nic.mac1609_4 DroppedPacketsInMac 0
scalar RSUExampleScenario.node[206].nic.mac1609_4 TooLittleTime 0
scalar RSUExampleScenario.node[206].nic.mac1609_4 TimesIntoBackoff 7
scalar RSUExampleScenario.node[206].nic.mac1609_4 SlotsBackoff 10
scalar RSUExampleScenario.node[206].nic.mac1609_4 NumInternalContention 0
scalar RSUExampleScenario.node[206].nic.mac1609_4 totalBusyTime 0.252623
scalar RSUExampleScenario.node[206].nic.mac1609_4 retriesExceeded:count 0
attr source org_car2x_veins_modules_mac_sigRetriesExceeded
scalar RSUExampleScenario.node[206].nic.mac1609_4 sentAcks:count 0
attr source org_car2x_veins_modules_mac_sigSentAck
scalar RSUExampleScenario.node[206].nic.mac1609_4 sentPackets:count 7
attr source org_car2x_veins_modules_mac_sigSentPacket
scalar RSUExampleScenario.node[206].nic.mac1609_4 collisions:count 0
attr source org_car2x_veins_modules_mac_sigCollision
scalar RSUExampleScenario.node[206].nic.mac1609_4 channelBusy:timeavg 0.031577874999999
attr source org_car2x_veins_modules_mac_sigChannelBusy
scalar RSUExampleScenario.node[206].veinsmobility startTime 5
scalar RSUExampleScenario.node[206].veinsmobility totalTime 7
scalar RSUExampleScenario.node[206].veinsmobility stopTime 13
scalar RSUExampleScenario.node[206].veinsmobility minSpeed 1.7226984513691
scalar RSUExampleScenario.node[206].veinsmobility maxSpeed 13.874698789651
scalar RSUExampleScenario.node[206].veinsmobility totalDistance 56.722747359425
scalar RSUExampleScenario.node[206].veinsmobility totalCO2Emission 35.844609714667
scalar RSUExampleScenario.node[205].appl generatedWSMs 0
scalar RSUExampleScenario.node[205].appl receivedWSMs 0
scalar RSUExampleScenario.node[205].appl generatedBSMs 14
scalar RSUExampleScenario.node[205].appl receivedBSMs 5245
scalar RSUExampleScenario.node[205].appl generatedWSAs 0
scalar RSUExampleScenario.node[205].appl receivedWSAs 0
scalar RSUExampleScenario.node[205].nic.phy80211p busyTime 0.039185714285713
scalar RSUExampleScenario.node[205].nic.mac1609_4 ReceivedUnicastPackets 0
scalar RSUExampleScenario.node[205].nic.mac1609_4 ReceivedBroadcasts 5245
scalar RSUExampleScenario.node[205].nic.mac1609_4 SentPackets 14
scalar RSUExampleScenario.node[205].nic.mac1609_4 SentAcknowledgements 0
scalar RSUExampleScenario.node[205].nic.mac1609_4 RetriesExceeded 0
scalar RSUExampleScenario.node[205].nic.mac1609_4 SNIRLostPackets 30
scalar RSUExampleScenario.node[205].nic.mac1609_4 RXTXLostPackets 0
scalar RSUExampleScenario.node[205].nic.mac1609_4 TotalLostPackets 30
scalar RSUExampleScenario.node[205].nic.mac1609_4 DroppedPacketsInMac 0
scalar RSUExampleScenario.node[205].nic.mac1609_4 TooLittleTime 0
scalar RSUExampleScenario.node[205].nic.mac1609_4 TimesIntoBackoff 15
scalar RSUExampleScenario.node[205].nic.mac1609_4 SlotsBackoff 12
scalar RSUExampleScenario.node[205].nic.mac1609_4 NumInternalContention 0
scalar RSUExampleScenario.node[205].nic.mac1609_4 totalBusyTime 0.54799
scalar RSUExampleScenario.node[205].nic.mac1609_4 retriesExceeded:count 0
attr source org_car2x_veins_modules_mac_sigRetriesExceeded
scalar RSUExampleScenario.node[205].nic.mac1609_4 sentAcks:count 0
attr source org_car2x_veins_modules_mac_sigSentAck
scalar RSUExampleScenario.node[205].nic.mac1609_4 sentPackets:count 14
attr source org_car2x_veins_modules_mac_sigSentPacket
scalar RSUExampleScenario.node[205].nic.mac1609_4 collisions:count 0
attr source org_car2x_veins_modules_mac_sigCollision
scalar RSUExampleScenario.node[205].nic.mac1609_4 channelBusy:timeavg 0.039142142857141
attr source org_car2x_veins_modules_mac_sigChannelBusy
scalar RSUExampleScenario.node[205].veinsmobility startTime 5
scalar RSUExampleScenario.node[205].veinsmobility totalTime 13
scalar RSUExampleScenario.node[205].veinsmobility stopTime 19
scalar RSUExampleScenario.node[205].veinsmobility minSpeed 1.56103663994
scalar RSUExampleScenario.node[205].veinsmobility maxSpeed 13.802602127264
scalar RSUExampleScenario.node[205].veinsmobility totalDistance 126.12058327833
scalar RSUExampleScenario.node[205].veinsmobility totalCO2Emission 45.730726402031
scalar RSUExampleScenario.node[71].appl generatedWSMs 0
scalar RSUExampleScenario.node[71].appl receivedWSMs 0
scalar RSUExampleScenario.node[71].appl generatedBSMs 20
scalar RSUExampleScenario.node[71].appl receivedBSMs 7135
scalar RSUExampleScenario.node[71].appl generatedWSAs 0
scalar RSUExampleScenario.node[71].appl receivedWSAs 0
scalar RSUExampleScenario.node[71].nic.phy80211p busyTime 0.037325599999998
scalar RSUExampleScenario.node[71].nic.mac1609_4 ReceivedUnicastPackets 0
scalar RSUExampleScenario.node[71].nic.mac1609_4 ReceivedBroadcasts 7135
scalar RSUExampleScenario.node[71].nic.mac1609_4 SentPackets 19
scalar RSUExampleScenario.node[71].nic.mac1609_4 SentAcknowledgements 0
scalar RSUExampleScenario.node[71].nic.mac1609_4 RetriesExceeded 0
scalar RSUExampleScenario.node[71].nic.mac1609_4 SNIRLostPackets 43
scalar RSUExampleScenario.node[71].nic.mac1609_4 RXTXLostPackets 0
scalar RSUExampleScenario.node[71].nic.mac1609_4 TotalLostPackets 43
scalar RSUExampleScenario.node[71].nic.mac1609_4 DroppedPacketsInMac 0
scalar RSUExampleScenario.node[71].nic.mac1609_4 TooLittleTime 0
scalar RSUExampleScenario.node[71].nic.mac1609_4 TimesIntoBackoff 19
scalar RSUExampleScenario.node[71].nic.mac1609_4 SlotsBackoff 26
scalar RSUExampleScenario.node[71].nic.mac1609_4 NumInternalContention 0
scalar RSUExampleScenario.node[71].nic.mac1609_4 totalBusyTime 0.745699587908
scalar RSUExampleScenario.node[71].nic.mac1609_4 retriesExceeded:count 0
attr source org_car2x_veins_modules_mac_sigRetriesExceeded
scalar RSUExampleScenario.node[71].nic.mac1609_4 sentAcks:count 0
attr source org_car2x_veins_modules_mac_sigSentAck
scalar RSUExampleScenario.node[71].nic.mac1609_4 sentPackets:count 19
attr source org_car2x_veins_modules_mac_sigSentPacket
scalar RSUExampleScenario.node[71].nic.mac1609_4 collisions:count 0
attr source org_car2x_veins_modules_mac_sigCollision
scalar RSUExampleScenario.node[71].nic.mac1609_4 channelBusy:timeavg 0.037284979395398
attr source org_car2x_veins_modules_mac_sigChannelBusy
scalar RSUExampleScenario.node[71].veinsmobility startTime 2
scalar RSUExampleScenario.node[71].veinsmobility totalTime 19
scalar RSUExampleScenario.node[71].veinsmobility stopTime 22
scalar RSUExampleScenario.node[71].veinsmobility minSpeed 2.318484536279
scalar RSUExampleScenario.node[71].veinsmobility maxSpeed 13.811787437857
scalar RSUExampleScenario.node[71].veinsmobility totalDistance 186.66061372707
scalar RSUExampleScenario.node[71].veinsmobility totalCO2Emission 68.344774835928
scalar RSUExampleScenario.node[454].appl generatedWSMs 0
scalar RSUExampleScenario.node[454].appl receivedWSMs 0
scalar RSUExampleScenario.node[454].appl generatedBSMs 8
scalar RSUExampleScenario.node[454].appl receivedBSMs 4020
scalar RSUExampleScenario.node[454].appl generatedWSAs 0
scalar RSUExampleScenario.node[454].appl receivedWSAs 0
scalar RSUExampleScenario.node[454].nic.phy80211p busyTime 0.052662999999998
scalar RSUExampleScenario.node[454].nic.mac1609_4 ReceivedUnicastPackets 0
scalar RSUExampleScenario.node[454].nic.mac1609_4 ReceivedBroadcasts 4020
scalar RSUExampleScenario.node[454].nic.mac1609_4 SentPackets 7
scalar RSUExampleScenario.node[454].nic.mac1609_4 SentAcknowledgements 0
scalar RSUExampleScenario.node[454].nic.mac1609_4 RetriesExceeded 0
scalar RSUExampleScenario.node[454].nic.mac1609_4 SNIRLostPackets 31
scalar RSUExampleScenario.node[454].nic.mac1609_4 RXTXLostPackets 0
scalar RSUExampleScenario.node[454].nic.mac1609_4 TotalLostPackets 31
scalar RSUExampleScenario.node[454].nic.mac1609_4 DroppedPacketsInMac 0
scalar RSUExampleScenario.node[454].nic.mac1609_4 TooLittleTime 0
scalar RSUExampleScenario.node[454].nic.mac1609_4 TimesIntoBackoff 7
scalar RSUExampleScenario.node[454].nic.mac1609_4 SlotsBackoff 18
scalar RSUExampleScenario.node[454].nic.mac1609_4 NumInternalContention 0
scalar RSUExampleScenario.node[454].nic.mac1609_4 totalBusyTime 0.420063
scalar RSUExampleScenario.node[454].nic.mac1609_4 retriesExceeded:count 0
attr source org_car2x_veins_modules_mac_sigRetriesExceeded
scalar RSUExampleScenario.node[454].nic.mac1609_4 sentAcks:count 0
attr source org_car2x_veins_modules_mac_sigSentAck
scalar RSUExampleScenario.node[454].nic.mac1609_4 sentPackets:count 7
attr source org_car2x_veins_modules_mac_sigSentPacket
scalar RSUExampleScenario.node[454].nic.mac1609_4 collisions:count 0
attr source org_car2x_veins_modules_mac_sigCollision
scalar RSUExampleScenario.node[454].nic.mac1609_4 channelBusy:timeavg 0.052507874999998
attr source org_car2x_veins_modules_mac_sigChannelBusy
scalar RSUExampleScenario.node[454].veinsmobility startTime 14
scalar RSUExampleScenario.node[454].veinsmobility totalTime 7
scalar RSUExampleScenario.node[454].veinsmobility stopTime 22
scalar RSUExampleScenario.node[454].veinsmobility minSpeed 2.2241006167838
scalar RSUExampleScenario.node[454].veinsmobility maxSpeed 13.774866258679
scalar RSUExampleScenario.node[454].veinsmobility totalDistance 60.357309518266
scalar RSUExampleScenario.node[454].veinsmobility totalCO2Emission 35.223128079973
scalar RSUExampleScenario.node[466].appl generatedWSMs 0
scalar RSUExampleScenario.node[466].appl receivedWSMs 0
scalar RSUExampleScenario.node[466].appl generatedBSMs 8
scalar RSUExampleScenario.node[466].appl receivedBSMs 4152
scalar RSUExampleScenario.node[466].appl generatedWSAs 0
scalar RSUExampleScenario.node[466].appl receivedWSAs 0
scalar RSUExampleScenario.node[466].nic.phy80211p busyTime 0.054365999999998
scalar RSUExampleScenario.node[466].nic.mac1609_4 ReceivedUnicastPackets 0
scalar RSUExampleScenario.node[466].nic.mac1609_4 ReceivedBroadcasts 4152
scalar RSUExampleScenario.node[466].nic.mac1609_4 SentPackets 8
scalar RSUExampleScenario.node[466].nic.mac1609_4 SentAcknowledgements 0
scalar RSUExampleScenario.node[466].nic.mac1609_4 RetriesExceeded 0
scalar RSUExampleScenario.node[466].nic.mac1609_4 SNIRLostPackets 30
scalar RSUExampleScenario.node[466].nic.mac1609_4 RXTXLostPackets 1
scalar RSUExampleScenario.node[466].nic.mac1609_4 TotalLostPackets 31
scalar RSUExampleScenario.node[466].nic.mac1609_4 DroppedPacketsInMac 0
scalar RSUExampleScenario.node[466].nic.mac1609_4 TooLittleTime 0
scalar RSUExampleScenario.node[466].nic.mac1609_4 TimesIntoBackoff 8
scalar RSUExampleScenario.node[466].nic.mac1609_4 SlotsBackoff 10
scalar RSUExampleScenario.node[466].nic.mac1609_4 NumInternalContention 0
scalar RSUExampleScenario.node[466].nic.mac1609_4 totalBusyTime 0.433792304281
scalar RSUExampleScenario.node[466].nic.mac1609_4 retriesExceeded:count 0
attr source org_car2x_veins_modules_mac_sigRetriesExceeded
scalar RSUExampleScenario.node[466].nic.mac1609_4 sentAcks:count 0
attr source org_car2x_veins_modules_mac_sigSentAck
scalar RSUExampleScenario.node[466].nic.mac1609_4 sentPackets:count 8
attr source org_car2x_veins_modules_mac_sigSentPacket
scalar RSUExampleScenario.node[466].nic.mac1609_4 collisions:count 0
attr source org_car2x_veins_modules_mac_sigCollision
scalar RSUExampleScenario.node[466].nic.mac1609_4 channelBusy:timeavg 0.054224038035123
attr source org_car2x_veins_modules_mac_sigChannelBusy
scalar RSUExampleScenario.node[466].veinsmobility startTime 15
scalar RSUExampleScenario.node[466].veinsmobility totalTime 7
scalar RSUExampleScenario.node[466].veinsmobility stopTime 23
scalar RSUExampleScenario.node[466].veinsmobility minSpeed 2.4085134795168
scalar RSUExampleScenario.node[466].veinsmobility maxSpeed 11.658681659168
scalar RSUExampleScenario.node[466].veinsmobility totalDistance 49.497052913899
scalar RSUExampleScenario.node[466].veinsmobility totalCO2Emission 26.421934120838
scalar RSUExampleScenario.node[467].appl generatedWSMs 0
scalar RSUExampleScenario.node[467].appl receivedWSMs 0
scalar RSUExampleScenario.node[467].appl generatedBSMs 9
scalar RSUExampleScenario.node[467].appl receivedBSMs 4696
scalar RSUExampleScenario.node[467].appl generatedWSAs 0
scalar RSUExampleScenario.node[467].appl receivedWSAs 0
scalar RSUExampleScenario.node[467].nic.phy80211p busyTime 0.05475022222222
scalar RSUExampleScenario.node[467].nic.mac1609_4 ReceivedUnicastPackets 0
scalar RSUExampleScenario.node[467].nic.mac1609_4 ReceivedBroadcasts 4696
scalar RSUExampleScenario.node[467].nic.mac1609_4 SentPackets 9
scalar RSUExampleScenario.node[467].nic.mac1609_4 SentAcknowledgements 0
scalar RSUExampleScenario.node[467].nic.mac1609_4 RetriesExceeded 0
scalar RSUExampleScenario.node[467].nic.mac1609_4 SNIRLostPackets 42
scalar RSUExampleScenario.node[467].nic.mac1609_4 RXTXLostPackets 1
scalar RSUExampleScenario.node[467].nic.mac1609_4 TotalLostPackets 43
scalar RSUExampleScenario.node[467].nic.mac1609_4 DroppedPacketsInMac 0
scalar RSUExampleScenario.node[467].nic.mac1609_4 TooLittleTime 0
scalar RSUExampleScenario.node[467].nic.mac1609_4 TimesIntoBackoff 11
scalar RSUExampleScenario.node[467].nic.mac1609_4 SlotsBackoff 21
scalar RSUExampleScenario.node[467].nic.mac1609_4 NumInternalContention 0
scalar RSUExampleScenario.node[467].nic.mac1609_4 totalBusyTime 0.490993373307
scalar RSUExampleScenario.node[467].nic.mac1609_4 retriesExceeded:count 0
attr source org_car2x_veins_modules_mac_sigRetriesExceeded
scalar RSUExampleScenario.node[467].nic.mac1609_4 sentAcks:count 0
attr source org_car2x_veins_modules_mac_sigSentAck
scalar RSUExampleScenario.node[467].nic.mac1609_4 sentPackets:count 9
attr source org_car2x_veins_modules_mac_sigSentPacket
scalar RSUExampleScenario.node[467].nic.mac1609_4 collisions:count 0
attr source org_car2x_veins_modules_mac_sigCollision
scalar RSUExampleScenario.node[467].nic.mac1609_4 channelBusy:timeavg 0.054554819256331
attr source org_car2x_veins_modules_mac_sigChannelBusy
scalar RSUExampleScenario.node[467].veinsmobility startTime 15
scalar RSUExampleScenario.node[467].veinsmobility totalTime 8
scalar RSUExampleScenario.node[467].veinsmobility stopTime 24
scalar RSUExampleScenario.node[467].veinsmobility minSpeed 1.8364624208305
scalar RSUExampleScenario.node[467].veinsmobility maxSpeed 11.201670296118
scalar RSUExampleScenario.node[467].veinsmobility totalDistance 53.664342892563
scalar RSUExampleScenario.node[467].veinsmobility totalCO2Emission 26.666974283622
scalar RSUExampleScenario.node[17].appl generatedWSMs 0
scalar RSUExampleScenario.node[17].appl receivedWSMs 0
scalar RSUExampleScenario.node[17].appl generatedBSMs 24
scalar RSUExampleScenario.node[17].appl receivedBSMs 9441
scalar RSUExampleScenario.node[17].appl generatedWSAs 0
scalar RSUExampleScenario.node[17].appl receivedWSAs 0
scalar RSUExampleScenario.node[17].nic.phy80211p busyTime 0.041183999999998
scalar RSUExampleScenario.node[17].nic.mac1609_4 ReceivedUnicastPackets 0
scalar RSUExampleScenario.node[17].nic.mac1609_4 ReceivedBroadcasts 9441
scalar RSUExampleScenario.node[17].nic.mac1609_4 SentPackets 24
scalar RSUExampleScenario.node[17].nic.mac1609_4 SentAcknowledgements 0
scalar RSUExampleScenario.node[17].nic.mac1609_4 RetriesExceeded 0
scalar RSUExampleScenario.node[17].nic.mac1609_4 SNIRLostPackets 63
scalar RSUExampleScenario.node[17].nic.mac1609_4 RXTXLostPackets 0
scalar RSUExampleScenario.node[17].nic.mac1609_4 TotalLostPackets 63
scalar RSUExampleScenario.node[17].nic.mac1609_4 DroppedPacketsInMac 0
scalar RSUExampleScenario.node[17].nic.mac1609_4 TooLittleTime 0
scalar RSUExampleScenario.node[17].nic.mac1609_4 TimesIntoBackoff 25
scalar RSUExampleScenario.node[17].nic.mac1609_4 SlotsBackoff 38
scalar RSUExampleScenario.node[17].nic.mac1609_4 NumInternalContention 0
scalar RSUExampleScenario.node[17].nic.mac1609_4 totalBusyTime 0.986776249285
scalar RSUExampleScenario.node[17].nic.mac1609_4 retriesExceeded:count 0
attr source org_car2x_veins_modules_mac_sigRetriesExceeded
scalar RSUExampleScenario.node[17].nic.mac1609_4 sentAcks:count 0
attr source org_car2x_veins_modules_mac_sigSentAck
scalar RSUExampleScenario.node[17].nic.mac1609_4 sentPackets:count 24
attr source org_car2x_veins_modules_mac_sigSentPacket
scalar RSUExampleScenario.node[17].nic.mac1609_4 collisions:count 0
attr source org_car2x_veins_modules_mac_sigCollision
scalar RSUExampleScenario.node[17].nic.mac1609_4 channelBusy:timeavg 0.041115677053539
attr source org_car2x_veins_modules_mac_sigChannelBusy
scalar RSUExampleScenario.node[17].veinsmobility startTime 2
scalar RSUExampleScenario.node[17].veinsmobility totalTime 23
scalar RSUExampleScenario.node[17].veinsmobility stopTime 26
scalar RSUExampleScenario.node[17].veinsmobility minSpeed 1.9014148032991
scalar RSUExampleScenario.node[17].veinsmobility maxSpeed 13.844895750051
scalar RSUExampleScenario.node[17].veinsmobility totalDistance 248.14901596281
scalar RSUExampleScenario.node[17].veinsmobility totalCO2Emission 76.496189783405
scalar RSUExampleScenario.node[519].appl generatedWSMs 0
scalar RSUExampleScenario.node[519].appl receivedWSMs 0
scalar RSUExampleScenario.node[519].appl generatedBSMs 8
scalar RSUExampleScenario.node[519].appl receivedBSMs 4422
scalar RSUExampleScenario.node[519].appl generatedWSAs 0
scalar RSUExampleScenario.node[519].appl receivedWSAs 0
scalar RSUExampleScenario.node[519].nic.phy80211p busyTime 0.058044999999998
scalar RSUExampleScenario.node[519].nic.mac1609_4 ReceivedUnicastPackets 0
scalar RSUExampleScenario.node[519].nic.mac1609_4 ReceivedBroadcasts 4422
scalar RSUExampleScenario.node[519].nic.mac1609_4 SentPackets 8
scalar RSUExampleScenario.node[519].nic.mac1609_4 SentAcknowledgements 0
scalar RSUExampleScenario.node[519].nic.mac1609_4 RetriesExceeded 0
scalar RSUExampleScenario.node[519].nic.mac1609_4 SNIRLostPackets 43
scalar RSUExampleScenario.node[519].nic.mac1609_4 RXTXLostPackets 0
scalar RSUExampleScenario.node[519].nic.mac1609_4 TotalLostPackets 43
scalar RSUExampleScenario.node[519].nic.mac1609_4 DroppedPacketsInMac 0
scalar RSUExampleScenario.node[519].nic.mac1609_4 TooLittleTime 0
scalar RSUExampleScenario.node[519].nic.mac1609_4 TimesIntoBackoff 8
scalar RSUExampleScenario.node[519].nic.mac1609_4 SlotsBackoff 9
scalar RSUExampleScenario.node[519].nic.mac1609_4 NumInternalContention 0
scalar RSUExampleScenario.node[519].nic.mac1609_4 totalBusyTime 0.462496338954
scalar RSUExampleScenario.node[519].nic.mac1609_4 retriesExceeded:count 0
attr source org_car2x_veins_modules_mac_sigRetriesExceeded
scalar RSUExampleScenario.node[519].nic.mac1609_4 sentAcks:count 0
attr source org_car2x_veins_modules_mac_sigSentAck
scalar RSUExampleScenario.node[519].nic.mac1609_4 sentPackets:count 8
attr source org_car2x_veins_modules_mac_sigSentPacket
scalar RSUExampleScenario.node[519].nic.mac1609_4 collisions:count 0
attr source org_car2x_veins_modules_mac_sigCollision
scalar RSUExampleScenario.node[519].nic.mac1609_4 channelBusy:timeavg 0.057812042369248
attr source org_car2x_veins_modules_mac_sigChannelBusy
scalar RSUExampleScenario.node[519].veinsmobility startTime 18
scalar RSUExampleScenario.node[519].veinsmobility totalTime 7
scalar RSUExampleScenario.node[519].veinsmobility stopTime 26
scalar RSUExampleScenario.node[519].veinsmobility minSpeed 1.5719952966087
scalar RSUExampleScenario.node[519].veinsmobility maxSpeed 12.316140925054
scalar RSUExampleScenario.node[519].veinsmobility totalDistance 52.193391030903
scalar RSUExampleScenario.node[519].veinsmobility totalCO2Emission 30.284560671825
scalar RSUExampleScenario.node[128].appl generatedWSMs 0
scalar RSUExampleScenario.node[128].appl receivedWSMs 0
scalar RSUExampleScenario.node[128].appl generatedBSMs 23
scalar RSUExampleScenario.node[128].appl receivedBSMs 9885
scalar RSUExampleScenario.node[128].appl generatedWSAs 0
scalar RSUExampleScenario.node[128].appl receivedWSAs 0
scalar RSUExampleScenario.node[128].nic.phy80211p busyTime 0.045013913043477
scalar RSUExampleScenario.node[128].nic.mac1609_4 ReceivedUnicastPackets 0
scalar RSUExampleScenario.node[128].nic.mac1609_4 ReceivedBroadcasts 9885
scalar RSUExampleScenario.node[128].nic.mac1609_4 SentPackets 22
scalar RSUExampleScenario.node[128].nic.mac1609_4 SentAcknowledgements 0
scalar RSUExampleScenario.node[128].nic.mac1609_4 RetriesExceeded 0
scalar RSUExampleScenario.node[128].nic.mac1609_4 SNIRLostPackets 70
scalar RSUExampleScenario.node[128].nic.mac1609_4 RXTXLostPackets 0
scalar RSUExampleScenario.node[128].nic.mac1609_4 TotalLostPackets 70
scalar RSUExampleScenario.node[128].nic.mac1609_4 DroppedPacketsInMac 0
scalar RSUExampleScenario.node[128].nic.mac1609_4 TooLittleTime 0
scalar RSUExampleScenario.node[128].nic.mac1609_4 TimesIntoBackoff 24
scalar RSUExampleScenario.node[128].nic.mac1609_4 SlotsBackoff 31
scalar RSUExampleScenario.node[128].nic.mac1609_4 NumInternalContention 0
scalar RSUExampleScenario.node[128].nic.mac1609_4 totalBusyTime 1.033054271515
scalar RSUExampleScenario.node[128].nic.mac1609_4 retriesExceeded:count 0
attr source org_car2x_veins_modules_mac_sigRetriesExceeded
scalar RSUExampleScenario.node[128].nic.mac1609_4 sentAcks:count 0
attr source org_car2x_veins_modules_mac_sigSentAck
scalar RSUExampleScenario.node[128].nic.mac1609_4 sentPackets:count 22
attr source org_car2x_veins_modules_mac_sigSentPacket
scalar RSUExampleScenario.node[128].nic.mac1609_4 collisions:count 0
attr source org_car2x_veins_modules_mac_sigCollision
scalar RSUExampleScenario.node[128].nic.mac1609_4 channelBusy:timeavg 0.044915403109347
attr source org_car2x_veins_modules_mac_sigChannelBusy
scalar RSUExampleScenario.node[128].veinsmobility startTime 4
scalar RSUExampleScenario.node[128].veinsmobility totalTime 22
scalar RSUExampleScenario.node[128].veinsmobility stopTime 27
scalar RSUExampleScenario.node[128].veinsmobility minSpeed 2.5568108977051
scalar RSUExampleScenario.node[128].veinsmobility maxSpeed 13.861518928199
scalar RSUExampleScenario.node[128].veinsmobility totalDistance 258.93990870997
scalar RSUExampleScenario.node[128].veinsmobility totalCO2Emission 69.254315160215
scalar RSUExampleScenario.node[214].appl generatedWSMs 0
scalar RSUExampleScenario.node[214].appl receivedWSMs 0
scalar RSUExampleScenario.node[214].appl generatedBSMs 21
scalar RSUExampleScenario.node[214].appl receivedBSMs 9576
scalar RSUExampleScenario.node[214].appl generatedWSAs 0
scalar RSUExampleScenario.node[214].appl receivedWSAs 0
scalar RSUExampleScenario.node[214].nic.phy80211p busyTime 0.047790476190474
scalar RSUExampleScenario.node[214].nic.mac1609_4 ReceivedUnicastPackets 0
scalar RSUExampleScenario.node[214].nic.mac1609_4 ReceivedBroadcasts 9576
scalar RSUExampleScenario.node[214].nic.mac1609_4 SentPackets 21
scalar RSUExampleScenario.node[214].nic.mac1609_4 SentAcknowledgements 0
scalar RSUExampleScenario.node[214].nic.mac1609_4 RetriesExceeded 0
scalar RSUExampleScenario.node[214].nic.mac1609_4 SNIRLostPackets 74
scalar RSUExampleScenario.node[214].nic.mac1609_4 RXTXLostPackets 1
scalar RSUExampleScenario.node[214].nic.mac1609_4 TotalLostPackets 75
scalar RSUExampleScenario.node[214].nic.mac1609_4 DroppedPacketsInMac 0
scalar RSUExampleScenario.node[214].nic.mac1609_4 TooLittleTime 0
scalar RSUExampleScenario.node[214].nic.mac1609_4 TimesIntoBackoff 23
scalar RSUExampleScenario.node[214].nic.mac1609_4 SlotsBackoff 33
scalar RSUExampleScenario.node[214].nic.mac1609_4 NumInternalContention 0
scalar RSUExampleScenario.node[214].nic.mac1609_4 totalBusyTime 1.001437210827
scalar RSUExampleScenario.node[214].nic.mac1609_4 retriesExceeded:count 0
attr source org_car2x_veins_modules_mac_sigRetriesExceeded
scalar RSUExampleScenario.node[214].nic.mac1609_4 sentAcks:count 0
attr source org_car2x_veins_modules_mac_sigSentAck
scalar RSUExampleScenario.node[214].nic.mac1609_4 sentPackets:count 21
attr source org_car2x_veins_modules_mac_sigSentPacket
scalar RSUExampleScenario.node[214].nic.mac1609_4 collisions:count 0
attr source org_car2x_veins_modules_mac_sigCollision
scalar RSUExampleScenario.node[214].nic.mac1609_4 channelBusy:timeavg 0.047687486229855
attr source org_car2x_veins_modules_mac_sigChannelBusy
scalar RSUExampleScenario.node[214].veinsmobility startTime 6
scalar RSUExampleScenario.node[214].veinsmobility totalTime 20
scalar RSUExampleScenario.node[214].veinsmobility stopTime 27
scalar RSUExampleScenario.node[214].veinsmobility minSpeed 1.3566725549521
scalar RSUExampleScenario.node[214].veinsmobility maxSpeed 13.055438487267
scalar RSUExampleScenario.node[214].veinsmobility totalDistance 189.81617871953
scalar RSUExampleScenario.node[214].veinsmobility totalCO2Emission 80.184249774763
scalar RSUExampleScenario.node[1].appl generatedWSMs 0
scalar RSUExampleScenario.node[1].appl receivedWSMs 0
scalar RSUExampleScenario.node[1].appl generatedBSMs 26
scalar RSUExampleScenario.node[1].appl receivedBSMs 10017
scalar RSUExampleScenario.node[1].appl generatedWSAs 0
scalar RSUExampleScenario.node[1].appl receivedWSAs 0
scalar RSUExampleScenario.node[1].nic.phy80211p busyTime 0.040364
scalar RSUExampleScenario.node[1].nic.mac1609_4 ReceivedUnicastPackets 0
scalar RSUExampleScenario.node[1].nic.mac1609_4 ReceivedBroadcasts 10017
scalar RSUExampleScenario.node[1].nic.mac1609_4 SentPackets 25
scalar RSUExampleScenario.node[1].nic.mac1609_4 SentAcknowledgements 0
scalar RSUExampleScenario.node[1].nic.mac1609_4 RetriesExceeded 0
scalar RSUExampleScenario.node[1].nic.mac1609_4 SNIRLostPackets 74
scalar RSUExampleScenario.node[1].nic.mac1609_4 RXTXLostPackets 0
scalar RSUExampleScenario.node[1].nic.mac1609_4 TotalLostPackets 74
scalar RSUExampleScenario.node[1].nic.mac1609_4 DroppedPacketsInMac 0
scalar RSUExampleScenario.node[1].nic.mac1609_4 TooLittleTime 0
scalar RSUExampleScenario.node[1].nic.mac1609_4 TimesIntoBackoff 25
scalar RSUExampleScenario.node[1].nic.mac1609_4 SlotsBackoff 37
scalar RSUExampleScenario.node[1].nic.mac1609_4 NumInternalContention 0
scalar RSUExampleScenario.node[1].nic.mac1609_4 totalBusyTime 1.047513406141
scalar RSUExampleScenario.node[1].nic.mac1609_4 retriesExceeded:count 0
attr source org_car2x_veins_modules_mac_sigRetriesExceeded
scalar RSUExampleScenario.node[1].nic.mac1609_4 sentAcks:count 0
attr source org_car2x_veins_modules_mac_sigSentAck
scalar RSUExampleScenario.node[1].nic.mac1609_4 sentPackets:count 25
attr source org_car2x_veins_modules_mac_sigSentPacket
scalar RSUExampleScenario.node[1].nic.mac1609_4 collisions:count 0
attr source org_car2x_veins_modules_mac_sigCollision
scalar RSUExampleScenario.node[1].nic.mac1609_4 channelBusy:timeavg 0.040288977159269
attr source org_car2x_veins_modules_mac_sigChannelBusy
scalar RSUExampleScenario.node[1].veinsmobility startTime 1
scalar RSUExampleScenario.node[1].veinsmobility totalTime 25
scalar RSUExampleScenario.node[1].veinsmobility stopTime 27
scalar RSUExampleScenario.node[1].veinsmobility minSpeed 1.8293019986944
scalar RSUExampleScenario.node[1].veinsmobility maxSpeed 13.794702357869
scalar RSUExampleScenario.node[1].veinsmobility totalDistance 252.87351315308
scalar RSUExampleScenario.node[1].veinsmobility totalCO2Emission 77.28559733042
scalar RSUExampleScenario.node[193].appl generatedWSMs 0
scalar RSUExampleScenario.node[193].appl receivedWSMs 0
scalar RSUExampleScenario.node[193].appl generatedBSMs 23
scalar RSUExampleScenario.node[193].appl receivedBSMs 10367
scalar RSUExampleScenario.node[193].appl generatedWSAs 0
scalar RSUExampleScenario.node[193].appl receivedWSAs 0
scalar RSUExampleScenario.node[193].nic.phy80211p busyTime 0.047220521739132
scalar RSUExampleScenario.node[193].nic.mac1609_4 ReceivedUnicastPackets 0
scalar RSUExampleScenario.node[193].nic.mac1609_4 ReceivedBroadcasts 10367
scalar RSUExampleScenario.node[193].nic.mac1609_4 SentPackets 22
scalar RSUExampleScenario.node[193].nic.mac1609_4 SentAcknowledgements 0
scalar RSUExampleScenario.node[193].nic.mac1609_4 RetriesExceeded 0
scalar RSUExampleScenario.node[193].nic.mac1609_4 SNIRLostPackets 76
scalar RSUExampleScenario.node[193].nic.mac1609_4 RXTXLostPackets 0
scalar RSUExampleScenario.node[193].nic.mac1609_4 TotalLostPackets 76
scalar RSUExampleScenario.node[193].nic.mac1609_4 DroppedPacketsInMac 0
scalar RSUExampleScenario.node[193].nic.mac1609_4 TooLittleTime 0
scalar RSUExampleScenario.node[193].nic.mac1609_4 TimesIntoBackoff 24
scalar RSUExampleScenario.node[193].nic.mac1609_4 SlotsBackoff 35
scalar RSUExampleScenario.node[193].nic.mac1609_4 NumInternalContention 0
scalar RSUExampleScenario.node[193].nic.mac1609_4 totalBusyTime 1.083183438776
scalar RSUExampleScenario.node[193].nic.mac1609_4 retriesExceeded:count 0
attr source org_car2x_veins_modules_mac_sigRetriesExceeded
scalar RSUExampleScenario.node[193].nic.mac1609_4 sentAcks:count 0
attr source org_car2x_veins_modules_mac_sigSentAck
scalar RSUExampleScenario.node[193].nic.mac1609_4 sentPackets:count 22
attr source org_car2x_veins_modules_mac_sigSentPacket
scalar RSUExampleScenario.node[193].nic.mac1609_4 collisions:count 0
attr source org_car2x_veins_modules_mac_sigCollision
scalar RSUExampleScenario.node[193].nic.mac1609_4 channelBusy:timeavg 0.047094932120697
attr source org_car2x_veins_modules_mac_sigChannelBusy
scalar RSUExampleScenario.node[193].veinsmobility startTime 5
scalar RSUExampleScenario.node[193].veinsmobility totalTime 22
scalar RSUExampleScenario.node[193].veinsmobility stopTime 28
scalar RSUExampleScenario.node[193].veinsmobility minSpeed 0
scalar RSUExampleScenario.node[193].veinsmobility maxSpeed 13.520924318489
scalar RSUExampleScenario.node[193].veinsmobility totalDistance 123.95673851639
scalar RSUExampleScenario.node[193].veinsmobility totalCO2Emission 66.649703066866
scalar RSUExampleScenario.node[316].appl generatedWSMs 0
scalar RSUExampleScenario.node[316].appl receivedWSMs 0
scalar RSUExampleScenario.node[316].appl generatedBSMs 20
scalar RSUExampleScenario.node[316].appl receivedBSMs 9707
scalar RSUExampleScenario.node[316].appl generatedWSAs 0
scalar RSUExampleScenario.node[316].appl receivedWSAs 0
scalar RSUExampleScenario.node[316].nic.phy80211p busyTime 0.050902799999998
scalar RSUExampleScenario.node[316].nic.mac1609_4 ReceivedUnicastPackets 0
scalar RSUExampleScenario.node[316].nic.mac1609_4 ReceivedBroadcasts 9707
scalar RSUExampleScenario.node[316].nic.mac1609_4 SentPackets 19
scalar RSUExampleScenario.node[316].nic.mac1609_4 SentAcknowledgements 0
scalar RSUExampleScenario.node[316].nic.mac1609_4 RetriesExceeded 0
scalar RSUExampleScenario.node[316].nic.mac1609_4 SNIRLostPackets 82
scalar RSUExampleScenario.node[316].nic.mac1609_4 RXTXLostPackets 0
scalar RSUExampleScenario.node[316].nic.mac1609_4 TotalLostPackets 82
scalar RSUExampleScenario.node[316].nic.mac1609_4 DroppedPacketsInMac 0
scalar RSUExampleScenario.node[316].nic.mac1609_4 TooLittleTime 0
scalar RSUExampleScenario.node[316].nic.mac1609_4 TimesIntoBackoff 22
scalar RSUExampleScenario.node[316].nic.mac1609_4 SlotsBackoff 34
scalar RSUExampleScenario.node[316].nic.mac1609_4 NumInternalContention 0
scalar RSUExampleScenario.node[316].nic.mac1609_4 totalBusyTime 1.014956334556
scalar RSUExampleScenario.node[316].nic.mac1609_4 retriesExceeded:count 0
attr source org_car2x_veins_modules_mac_sigRetriesExceeded
scalar RSUExampleScenario.node[316].nic.mac1609_4 sentAcks:count 0
attr source org_car2x_veins_modules_mac_sigSentAck
scalar RSUExampleScenario.node[316].nic.mac1609_4 sentPackets:count 19
attr source org_car2x_veins_modules_mac_sigSentPacket
scalar RSUExampleScenario.node[316].nic.mac1609_4 collisions:count 0
attr source org_car2x_veins_modules_mac_sigCollision
scalar RSUExampleScenario.node[316].nic.mac1609_4 channelBusy:timeavg 0.050747816727798
attr source org_car2x_veins_modules_mac_sigChannelBusy
scalar RSUExampleScenario.node[316].veinsmobility startTime 8
scalar RSUExampleScenario.node[316].veinsmobility totalTime 19
scalar RSUExampleScenario.node[316].veinsmobility stopTime 28
scalar RSUExampleScenario.node[316].veinsmobility minSpeed 1.2679570277987
scalar RSUExampleScenario.node[316].veinsmobility maxSpeed 11.358575031441
scalar RSUExampleScenario.node[316].veinsmobility totalDistance 122.74303881371
scalar RSUExampleScenario.node[316].veinsmobility totalCO2Emission 57.859312813424
scalar RSUExampleScenario.node[322].appl generatedWSMs 0
scalar RSUExampleScenario.node[322].appl receivedWSMs 0
scalar RSUExampleScenario.node[322].appl generatedBSMs 20
scalar RSUExampleScenario.node[322].appl receivedBSMs 10000
scalar RSUExampleScenario.node[322].appl generatedWSAs 0
scalar RSUExampleScenario.node[322].appl receivedWSAs 0
scalar RSUExampleScenario.node[322].nic.phy80211p busyTime 0.0524472
scalar RSUExampleScenario.node[322].nic.mac1609_4 ReceivedUnicastPackets 0
scalar RSUExampleScenario.node[322].nic.mac1609_4 ReceivedBroadcasts 10000
scalar RSUExampleScenario.node[322].nic.mac1609_4 SentPackets 20
scalar RSUExampleScenario.node[322].nic.mac1609_4 SentAcknowledgements 0
scalar RSUExampleScenario.node[322].nic.mac1609_4 RetriesExceeded 0
scalar RSUExampleScenario.node[322].nic.mac1609_4 SNIRLostPackets 86
scalar RSUExampleScenario.node[322].nic.mac1609_4 RXTXLostPackets 0
scalar RSUExampleScenario.node[322].nic.mac1609_4 TotalLostPackets 86
scalar RSUExampleScenario.node[322].nic.mac1609_4 DroppedPacketsInMac 0
scalar RSUExampleScenario.node[322].nic.mac1609_4 TooLittleTime 0
scalar RSUExampleScenario.node[322].nic.mac1609_4 TimesIntoBackoff 20
scalar RSUExampleScenario.node[322].nic.mac1609_4 SlotsBackoff 25
scalar RSUExampleScenario.node[322].nic.mac1609_4 NumInternalContention 0
scalar RSUExampleScenario.node[322].nic.mac1609_4 totalBusyTime 1.045740048494
scalar RSUExampleScenario.node[322].nic.mac1609_4 retriesExceeded:count 0
attr source org_car2x_veins_modules_mac_sigRetriesExceeded
scalar RSUExampleScenario.node[322].nic.mac1609_4 sentAcks:count 0
attr source org_car2x_veins_modules_mac_sigSentAck
scalar RSUExampleScenario.node[322].nic.mac1609_4 sentPackets:count 20
attr source org_car2x_veins_modules_mac_sigSentPacket
scalar RSUExampleScenario.node[322].nic.mac1609_4 collisions:count 0
attr source org_car2x_veins_modules_mac_sigCollision
scalar RSUExampleScenario.node[322].nic.mac1609_4 channelBusy:timeavg 0.0522870024247
attr source org_car2x_veins_modules_mac_sigChannelBusy
scalar RSUExampleScenario.node[322].veinsmobility startTime 9
scalar RSUExampleScenario.node[322].veinsmobility totalTime 19
scalar RSUExampleScenario.node[322].veinsmobility stopTime 29
scalar RSUExampleScenario.node[322].veinsmobility minSpeed 1.8052743518958
scalar RSUExampleScenario.node[322].veinsmobility maxSpeed 13.769561463105
scalar RSUExampleScenario.node[322].veinsmobility totalDistance 191.28911372148
scalar RSUExampleScenario.node[322].veinsmobility totalCO2Emission 71.549917049785
scalar RSUExampleScenario.node[163].appl generatedWSMs 0
scalar RSUExampleScenario.node[163].appl receivedWSMs 0
scalar RSUExampleScenario.node[163].appl generatedBSMs 24
scalar RSUExampleScenario.node[163].appl receivedBSMs 10949
scalar RSUExampleScenario.node[163].appl generatedWSAs 0
scalar RSUExampleScenario.node[163].appl receivedWSAs 0
scalar RSUExampleScenario.node[163].nic.phy80211p busyTime 0.047796666666671
scalar RSUExampleScenario.node[163].nic.mac1609_4 ReceivedUnicastPackets 0
scalar RSUExampleScenario.node[163].nic.mac1609_4 ReceivedBroadcasts 10949
scalar RSUExampleScenario.node[163].nic.mac1609_4 SentPackets 23
scalar RSUExampleScenario.node[163].nic.mac1609_4 SentAcknowledgements 0
scalar RSUExampleScenario.node[163].nic.mac1609_4 RetriesExceeded 0
scalar RSUExampleScenario.node[163].nic.mac1609_4 SNIRLostPackets 81
scalar RSUExampleScenario.node[163].nic.mac1609_4 RXTXLostPackets 0
scalar RSUExampleScenario.node[163].nic.mac1609_4 TotalLostPackets 81
scalar RSUExampleScenario.node[163].nic.mac1609_4 DroppedPacketsInMac 0
scalar RSUExampleScenario.node[163].nic.mac1609_4 TooLittleTime 0
scalar RSUExampleScenario.node[163].nic.mac1609_4 TimesIntoBackoff 26
scalar RSUExampleScenario.node[163].nic.mac1609_4 SlotsBackoff 37
scalar RSUExampleScenario.node[163].nic.mac1609_4 NumInternalContention 0
scalar RSUExampleScenario.node[163].nic.mac1609_4 totalBusyTime 1.144023
scalar RSUExampleScenario.node[163].nic.mac1609_4 retriesExceeded:count 0
attr source org_car2x_veins_modules_mac_sigRetriesExceeded
scalar RSUExampleScenario.node[163].nic.mac1609_4 sentAcks:count 0
attr source org_car2x_veins_modules_mac_sigSentAck
scalar RSUExampleScenario.node[163].nic.mac1609_4 sentPackets:count 23
attr source org_car2x_veins_modules_mac_sigSentPacket
scalar RSUExampleScenario.node[163].nic.mac1609_4 collisions:count 0
attr source org_car2x_veins_modules_mac_sigCollision
scalar RSUExampleScenario.node[163].nic.mac1609_4 channelBusy:timeavg 0.047667625000004
attr source org_car2x_veins_modules_mac_sigChannelBusy
scalar RSUExampleScenario.node[163].veinsmobility startTime 5
scalar RSUExampleScenario.node[163].veinsmobility totalTime 23
scalar RSUExampleScenario.node[163].veinsmobility stopTime 29
scalar RSUExampleScenario.node[163].veinsmobility minSpeed 2.385553467134
scalar RSUExampleScenario.node[163].veinsmobility maxSpeed 13.850541919749
scalar RSUExampleScenario.node[163].veinsmobility totalDistance 254.84713164326
scalar RSUExampleScenario.node[163].veinsmobility totalCO2Emission 79.764084515962
scalar RSUExampleScenario.node[85].appl generatedWSMs 0
scalar RSUExampleScenario.node[85].appl receivedWSMs 0
scalar RSUExampleScenario.node[85].appl generatedBSMs 28
scalar RSUExampleScenario.node[85].appl receivedBSMs 12399
scalar RSUExampleScenario.node[85].appl generatedWSAs 0
scalar RSUExampleScenario.node[85].appl receivedWSAs 0
scalar RSUExampleScenario.node[85].nic.phy80211p busyTime 0.046436000000009
scalar RSUExampleScenario.node[85].nic.mac1609_4 ReceivedUnicastPackets 0
scalar RSUExampleScenario.node[85].nic.mac1609_4 ReceivedBroadcasts 12399
scalar RSUExampleScenario.node[85].nic.mac1609_4 SentPackets 27
scalar RSUExampleScenario.node[85].nic.mac1609_4 SentAcknowledgements 0
scalar RSUExampleScenario.node[85].nic.mac1609_4 RetriesExceeded 0
scalar RSUExampleScenario.node[85].nic.mac1609_4 SNIRLostPackets 103
scalar RSUExampleScenario.node[85].nic.mac1609_4 RXTXLostPackets 0
scalar RSUExampleScenario.node[85].nic.mac1609_4 TotalLostPackets 103
scalar RSUExampleScenario.node[85].nic.mac1609_4 DroppedPacketsInMac 0
scalar RSUExampleScenario.node[85].nic.mac1609_4 TooLittleTime 0
scalar RSUExampleScenario.node[85].nic.mac1609_4 TimesIntoBackoff 28
scalar RSUExampleScenario.node[85].nic.mac1609_4 SlotsBackoff 42
scalar RSUExampleScenario.node[85].nic.mac1609_4 NumInternalContention 0
scalar RSUExampleScenario.node[85].nic.mac1609_4 totalBusyTime 1.296387808382
scalar RSUExampleScenario.node[85].nic.mac1609_4 retriesExceeded:count 0
attr source org_car2x_veins_modules_mac_sigRetriesExceeded
scalar RSUExampleScenario.node[85].nic.mac1609_4 sentAcks:count 0
attr source org_car2x_veins_modules_mac_sigSentAck
scalar RSUExampleScenario.node[85].nic.mac1609_4 sentPackets:count 27
attr source org_car2x_veins_modules_mac_sigSentPacket
scalar RSUExampleScenario.node[85].nic.mac1609_4 collisions:count 0
attr source org_car2x_veins_modules_mac_sigCollision
scalar RSUExampleScenario.node[85].nic.mac1609_4 channelBusy:timeavg 0.04629956458508
attr source org_car2x_veins_modules_mac_sigChannelBusy
scalar RSUExampleScenario.node[85].veinsmobility startTime 3
scalar RSUExampleScenario.node[85].veinsmobility totalTime 27
scalar RSUExampleScenario.node[85].veinsmobility stopTime 31
scalar RSUExampleScenario.node[85].veinsmobility minSpeed 1.9907534421887
scalar RSUExampleScenario.node[85].veinsmobility maxSpeed 13.882205068297
scalar RSUExampleScenario.node[85].veinsmobility totalDistance 296.17052067388
scalar RSUExampleScenario.node[85].veinsmobility totalCO2Emission 86.752339440597
scalar RSUExampleScenario.node[581].appl generatedWSMs 0
scalar RSUExampleScenario.node[581].appl receivedWSMs 0
scalar RSUExampleScenario.node[581].appl generatedBSMs 8
scalar RSUExampleScenario.node[581].appl receivedBSMs 4725
scalar RSUExampleScenario.node[581].appl generatedWSAs 0
scalar RSUExampleScenario.node[581].appl receivedWSAs 0
scalar RSUExampleScenario.node[581].nic.phy80211p busyTime 0.062139999999997
scalar RSUExampleScenario.node[581].nic.mac1609_4 ReceivedUnicastPackets 0
scalar RSUExampleScenario.node[581].nic.mac1609_4 ReceivedBroadcasts 4725
scalar RSUExampleScenario.node[581].nic.mac1609_4 SentPackets 8
scalar RSUExampleScenario.node[581].nic.mac1609_4 SentAcknowledgements 0
scalar RSUExampleScenario.node[581].nic.mac1609_4 RetriesExceeded 0
scalar RSUExampleScenario.node[581].nic.mac1609_4 SNIRLostPackets 55
scalar RSUExampleScenario.node[581].nic.mac1609_4 RXTXLostPackets 0
scalar RSUExampleScenario.node[581].nic.mac1609_4 TotalLostPackets 55
scalar RSUExampleScenario.node[581].nic.mac1609_4 DroppedPacketsInMac 0
scalar RSUExampleScenario.node[581].nic.mac1609_4 TooLittleTime 0
scalar RSUExampleScenario.node[581].nic.mac1609_4 TimesIntoBackoff 8
scalar RSUExampleScenario.node[581].nic.mac1609_4 SlotsBackoff 10
scalar RSUExampleScenario.node[581].nic.mac1609_4 NumInternalContention 0
scalar RSUExampleScenario.node[581].nic.mac1609_4 totalBusyTime 0.494320570728
scalar RSUExampleScenario.node[581].nic.mac1609_4 retriesExceeded:count 0
attr source org_car2x_veins_modules_mac_sigRetriesExceeded
scalar RSUExampleScenario.node[581].nic.mac1609_4 sentAcks:count 0
attr source org_car2x_veins_modules_mac_sigSentAck
scalar RSUExampleScenario.node[581].nic.mac1609_4 sentPackets:count 8
attr source org_car2x_veins_modules_mac_sigSentPacket
scalar RSUExampleScenario.node[581].nic.mac1609_4 collisions:count 0
attr source org_car2x_veins_modules_mac_sigCollision
scalar RSUExampleScenario.node[581].nic.mac1609_4 channelBusy:timeavg 0.061790071340997
attr source org_car2x_veins_modules_mac_sigChannelBusy
scalar RSUExampleScenario.node[581].veinsmobility startTime 23
scalar RSUExampleScenario.node[581].veinsmobility totalTime 7
scalar RSUExampleScenario.node[581].veinsmobility stopTime 31
scalar RSUExampleScenario.node[581].veinsmobility minSpeed 1.3598543347791
scalar RSUExampleScenario.node[581].veinsmobility maxSpeed 13.522943166667
scalar RSUExampleScenario.node[581].veinsmobility totalDistance 55.818296097755
scalar RSUExampleScenario.node[581].veinsmobility totalCO2Emission 34.972045547759
scalar RSUExampleScenario.node[256].appl generatedWSMs 0
scalar RSUExampleScenario.node[256].appl receivedWSMs 0
scalar RSUExampleScenario.node[256].appl generatedBSMs 25
scalar RSUExampleScenario.node[256].appl receivedBSMs 12416
scalar RSUExampleScenario.node[256].appl generatedWSAs 0
scalar RSUExampleScenario.node[256].appl receivedWSAs 0
scalar RSUExampleScenario.node[256].nic.phy80211p busyTime 0.05209984000001
scalar RSUExampleScenario.node[256].nic.mac1609_4 ReceivedUnicastPackets 0
scalar RSUExampleScenario.node[256].nic.mac1609_4 ReceivedBroadcasts 12416
scalar RSUExampleScenario.node[256].nic.mac1609_4 SentPackets 24
scalar RSUExampleScenario.node[256].nic.mac1609_4 SentAcknowledgements 0
scalar RSUExampleScenario.node[256].nic.mac1609_4 RetriesExceeded 0
scalar RSUExampleScenario.node[256].nic.mac1609_4 SNIRLostPackets 108
scalar RSUExampleScenario.node[256].nic.mac1609_4 RXTXLostPackets 1
scalar RSUExampleScenario.node[256].nic.mac1609_4 TotalLostPackets 109
scalar RSUExampleScenario.node[256].nic.mac1609_4 DroppedPacketsInMac 0
scalar RSUExampleScenario.node[256].nic.mac1609_4 TooLittleTime 0
scalar RSUExampleScenario.node[256].nic.mac1609_4 TimesIntoBackoff 24
scalar RSUExampleScenario.node[256].nic.mac1609_4 SlotsBackoff 43
scalar RSUExampleScenario.node[256].nic.mac1609_4 NumInternalContention 0
scalar RSUExampleScenario.node[256].nic.mac1609_4 totalBusyTime 1.298048136637
scalar RSUExampleScenario.node[256].nic.mac1609_4 retriesExceeded:count 0
attr source org_car2x_veins_modules_mac_sigRetriesExceeded
scalar RSUExampleScenario.node[256].nic.mac1609_4 sentAcks:count 0
attr source org_car2x_veins_modules_mac_sigSentAck
scalar RSUExampleScenario.node[256].nic.mac1609_4 sentPackets:count 24
attr source org_car2x_veins_modules_mac_sigSentPacket
scalar RSUExampleScenario.node[256].nic.mac1609_4 collisions:count 0
attr source org_car2x_veins_modules_mac_sigCollision
scalar RSUExampleScenario.node[256].nic.mac1609_4 channelBusy:timeavg 0.05192192546549
attr source org_car2x_veins_modules_mac_sigChannelBusy
scalar RSUExampleScenario.node[256].veinsmobility startTime 7
scalar RSUExampleScenario.node[256].veinsmobility totalTime 24
scalar RSUExampleScenario.node[256].veinsmobility stopTime 32
scalar RSUExampleScenario.node[256].veinsmobility minSpeed 2.2388942248654
scalar RSUExampleScenario.node[256].veinsmobility maxSpeed 13.87009020492
scalar RSUExampleScenario.node[256].veinsmobility totalDistance 274.21554875607
scalar RSUExampleScenario.node[256].veinsmobility totalCO2Emission 71.973359124274
scalar RSUExampleScenario.node[395].appl generatedWSMs 0
scalar RSUExampleScenario.node[395].appl receivedWSMs 0
scalar RSUExampleScenario.node[395].appl generatedBSMs 23
scalar RSUExampleScenario.node[395].appl receivedBSMs 12429
scalar RSUExampleScenario.node[395].appl generatedWSAs 0
scalar RSUExampleScenario.node[395].appl receivedWSAs 0
scalar RSUExampleScenario.node[395].nic.phy80211p busyTime 0.056725217391315
scalar RSUExampleScenario.node[395].nic.mac1609_4 ReceivedUnicastPackets 0
scalar RSUExampleScenario.node[395].nic.mac1609_4 ReceivedBroadcasts 12429
scalar RSUExampleScenario.node[395].nic.mac1609_4 SentPackets 22
scalar RSUExampleScenario.node[395].nic.mac1609_4 SentAcknowledgements 0
scalar RSUExampleScenario.node[395].nic.mac1609_4 RetriesExceeded 0
scalar RSUExampleScenario.node[395].nic.mac1609_4 SNIRLostPackets 116
scalar RSUExampleScenario.node[395].nic.mac1609_4 RXTXLostPackets 0
scalar RSUExampleScenario.node[395].nic.mac1609_4 TotalLostPackets 116
scalar RSUExampleScenario.node[395].nic.mac1609_4 DroppedPacketsInMac 0
scalar RSUExampleScenario.node[395].nic.mac1609_4 TooLittleTime 0
scalar RSUExampleScenario.node[395].nic.mac1609_4 TimesIntoBackoff 23
scalar RSUExampleScenario.node[395].nic.mac1609_4 SlotsBackoff 20
scalar RSUExampleScenario.node[395].nic.mac1609_4 NumInternalContention 0
scalar RSUExampleScenario.node[395].nic.mac1609_4 totalBusyTime 1.299710510497
scalar RSUExampleScenario.node[395].nic.mac1609_4 retriesExceeded:count 0
attr source org_car2x_veins_modules_mac_sigRetriesExceeded
scalar RSUExampleScenario.node[395].nic.mac1609_4 sentAcks:count 0
attr source org_car2x_veins_modules_mac_sigSentAck
scalar RSUExampleScenario.node[395].nic.mac1609_4 sentPackets:count 22
attr source org_car2x_veins_modules_mac_sigSentPacket
scalar RSUExampleScenario.node[395].nic.mac1609_4 collisions:count 0
attr source org_car2x_veins_modules_mac_sigCollision
scalar RSUExampleScenario.node[395].nic.mac1609_4 channelBusy:timeavg 0.056509152630315
attr source org_car2x_veins_modules_mac_sigChannelBusy
scalar RSUExampleScenario.node[395].veinsmobility startTime 11
scalar RSUExampleScenario.node[395].veinsmobility totalTime 22
scalar RSUExampleScenario.node[395].veinsmobility stopTime 34
scalar RSUExampleScenario.node[395].veinsmobility minSpeed 1.8714142354438
scalar RSUExampleScenario.node[395].veinsmobility maxSpeed 13.71993140562
scalar RSUExampleScenario.node[395].veinsmobility totalDistance 226.93924630434
scalar RSUExampleScenario.node[395].veinsmobility totalCO2Emission 76.356762987804
scalar RSUExampleScenario.node[248].appl generatedWSMs 0
scalar RSUExampleScenario.node[248].appl receivedWSMs 0
scalar RSUExampleScenario.node[248].appl generatedBSMs 27
scalar RSUExampleScenario.node[248].appl receivedBSMs 13680
scalar RSUExampleScenario.node[248].appl generatedWSAs 0
scalar RSUExampleScenario.node[248].appl receivedWSAs 0
scalar RSUExampleScenario.node[248].nic.phy80211p busyTime 0.053163259259273
scalar RSUExampleScenario.node[248].nic.mac1609_4 ReceivedUnicastPackets 0
scalar RSUExampleScenario.node[248].nic.mac1609_4 ReceivedBroadcasts 13680
scalar RSUExampleScenario.node[248].nic.mac1609_4 SentPackets 26
scalar RSUExampleScenario.node[248].nic.mac1609_4 SentAcknowledgements 0
scalar RSUExampleScenario.node[248].nic.mac1609_4 RetriesExceeded 0
scalar RSUExampleScenario.node[248].nic.mac1609_4 SNIRLostPackets 122
scalar RSUExampleScenario.node[248].nic.mac1609_4 RXTXLostPackets 0
scalar RSUExampleScenario.node[248].nic.mac1609_4 TotalLostPackets 122
scalar RSUExampleScenario.node[248].nic.mac1609_4 DroppedPacketsInMac 0
scalar RSUExampleScenario.node[248].nic.mac1609_4 TooLittleTime 0
scalar RSUExampleScenario.node[248].nic.mac1609_4 TimesIntoBackoff 27
scalar RSUExampleScenario.node[248].nic.mac1609_4 SlotsBackoff 41
scalar RSUExampleScenario.node[248].nic.mac1609_4 NumInternalContention 0
scalar RSUExampleScenario.node[248].nic.mac1609_4 totalBusyTime 1.430442568739
scalar RSUExampleScenario.node[248].nic.mac1609_4 retriesExceeded:count 0
attr source org_car2x_veins_modules_mac_sigRetriesExceeded
scalar RSUExampleScenario.node[248].nic.mac1609_4 sentAcks:count 0
attr source org_car2x_veins_modules_mac_sigSentAck
scalar RSUExampleScenario.node[248].nic.mac1609_4 sentPackets:count 26
attr source org_car2x_veins_modules_mac_sigSentPacket
scalar RSUExampleScenario.node[248].nic.mac1609_4 collisions:count 0
attr source org_car2x_veins_modules_mac_sigCollision
scalar RSUExampleScenario.node[248].nic.mac1609_4 channelBusy:timeavg 0.052979354397755
attr source org_car2x_veins_modules_mac_sigChannelBusy
scalar RSUExampleScenario.node[248].veinsmobility startTime 7
scalar RSUExampleScenario.node[248].veinsmobility totalTime 26
scalar RSUExampleScenario.node[248].veinsmobility stopTime 34
scalar RSUExampleScenario.node[248].veinsmobility minSpeed 2.4495857930975
scalar RSUExampleScenario.node[248].veinsmobility maxSpeed 13.779293427709
scalar RSUExampleScenario.node[248].veinsmobility totalDistance 255.25746384117
scalar RSUExampleScenario.node[248].veinsmobility totalCO2Emission 94.058861517824
scalar RSUExampleScenario.node[177].appl generatedWSMs 0
scalar RSUExampleScenario.node[177].appl receivedWSMs 0
scalar RSUExampleScenario.node[177].appl generatedBSMs 30
scalar RSUExampleScenario.node[177].appl receivedBSMs 14700
scalar RSUExampleScenario.node[177].appl generatedWSAs 0
scalar RSUExampleScenario.node[177].appl receivedWSAs 0
scalar RSUExampleScenario.node[177].nic.phy80211p busyTime 0.051400266666683
scalar RSUExampleScenario.node[177].nic.mac1609_4 ReceivedUnicastPackets 0
scalar RSUExampleScenario.node[177].nic.mac1609_4 ReceivedBroadcasts 14700
scalar RSUExampleScenario.node[177].nic.mac1609_4 SentPackets 29
scalar RSUExampleScenario.node[177].nic.mac1609_4 SentAcknowledgements 0
scalar RSUExampleScenario.node[177].nic.mac1609_4 RetriesExceeded 0
scalar RSUExampleScenario.node[177].nic.mac1609_4 SNIRLostPackets 127
scalar RSUExampleScenario.node[177].nic.mac1609_4 RXTXLostPackets 0
scalar RSUExampleScenario.node[177].nic.mac1609_4 TotalLostPackets 127
scalar RSUExampleScenario.node[177].nic.mac1609_4 DroppedPacketsInMac 0
scalar RSUExampleScenario.node[177].nic.mac1609_4 TooLittleTime 0
scalar RSUExampleScenario.node[177].nic.mac1609_4 TimesIntoBackoff 32
scalar RSUExampleScenario.node[177].nic.mac1609_4 SlotsBackoff 48
scalar RSUExampleScenario.node[177].nic.mac1609_4 NumInternalContention 0
scalar RSUExampleScenario.node[177].nic.mac1609_4 totalBusyTime 1.537045250573
scalar RSUExampleScenario.node[177].nic.mac1609_4 retriesExceeded:count 0
attr source org_car2x_veins_modules_mac_sigRetriesExceeded
scalar RSUExampleScenario.node[177].nic.mac1609_4 sentAcks:count 0
attr source org_car2x_veins_modules_mac_sigSentAck
scalar RSUExampleScenario.node[177].nic.mac1609_4 sentPackets:count 29
attr source org_car2x_veins_modules_mac_sigSentPacket
scalar RSUExampleScenario.node[177].nic.mac1609_4 collisions:count 0
attr source org_car2x_veins_modules_mac_sigCollision
scalar RSUExampleScenario.node[177].nic.mac1609_4 channelBusy:timeavg 0.051234841685783
attr source org_car2x_veins_modules_mac_sigChannelBusy
scalar RSUExampleScenario.node[177].veinsmobility startTime 5
scalar RSUExampleScenario.node[177].veinsmobility totalTime 29
scalar RSUExampleScenario.node[177].veinsmobility stopTime 35
scalar RSUExampleScenario.node[177].veinsmobility minSpeed 2.220208210079
scalar RSUExampleScenario.node[177].veinsmobility maxSpeed 13.855657127569
scalar RSUExampleScenario.node[177].veinsmobility totalDistance 332.42765371099
scalar RSUExampleScenario.node[177].veinsmobility totalCO2Emission 92.743316553955
scalar RSUExampleScenario.node[398].appl generatedWSMs 0
scalar RSUExampleScenario.node[398].appl receivedWSMs 0
scalar RSUExampleScenario.node[398].appl generatedBSMs 25
scalar RSUExampleScenario.node[398].appl receivedBSMs 13725
scalar RSUExampleScenario.node[398].appl generatedWSAs 0
scalar RSUExampleScenario.node[398].appl receivedWSAs 0
scalar RSUExampleScenario.node[398].nic.phy80211p busyTime 0.057599360000015
scalar RSUExampleScenario.node[398].nic.mac1609_4 ReceivedUnicastPackets 0
scalar RSUExampleScenario.node[398].nic.mac1609_4 ReceivedBroadcasts 13725
scalar RSUExampleScenario.node[398].nic.mac1609_4 SentPackets 24
scalar RSUExampleScenario.node[398].nic.mac1609_4 SentAcknowledgements 0
scalar RSUExampleScenario.node[398].nic.mac1609_4 RetriesExceeded 0
scalar RSUExampleScenario.node[398].nic.mac1609_4 SNIRLostPackets 121
scalar RSUExampleScenario.node[398].nic.mac1609_4 RXTXLostPackets 0
scalar RSUExampleScenario.node[398].nic.mac1609_4 TotalLostPackets 121
scalar RSUExampleScenario.node[398].nic.mac1609_4 DroppedPacketsInMac 0
scalar RSUExampleScenario.node[398].nic.mac1609_4 TooLittleTime 0
scalar RSUExampleScenario.node[398].nic.mac1609_4 TimesIntoBackoff 25
scalar RSUExampleScenario.node[398].nic.mac1609_4 SlotsBackoff 40
scalar RSUExampleScenario.node[398].nic.mac1609_4 NumInternalContention 0
scalar RSUExampleScenario.node[398].nic.mac1609_4 totalBusyTime 1.434808194676
scalar RSUExampleScenario.node[398].nic.mac1609_4 retriesExceeded:count 0
attr source org_car2x_veins_modules_mac_sigRetriesExceeded
scalar RSUExampleScenario.node[398].nic.mac1609_4 sentAcks:count 0
attr source org_car2x_veins_modules_mac_sigSentAck
scalar RSUExampleScenario.node[398].nic.mac1609_4 sentPackets:count 24
attr source org_car2x_veins_modules_mac_sigSentPacket
scalar RSUExampleScenario.node[398].nic.mac1609_4 collisions:count 0
attr source org_car2x_veins_modules_mac_sigCollision
scalar RSUExampleScenario.node[398].nic.mac1609_4 channelBusy:timeavg 0.057392327787055
attr source org_car2x_veins_modules_mac_sigChannelBusy
scalar RSUExampleScenario.node[398].veinsmobility startTime 11
scalar RSUExampleScenario.node[398].veinsmobility totalTime 24
scalar RSUExampleScenario.node[398].veinsmobility stopTime 36
scalar RSUExampleScenario.node[398].veinsmobility minSpeed 1.5501670531696
scalar RSUExampleScenario.node[398].veinsmobility maxSpeed 13.892792287772
scalar RSUExampleScenario.node[398].veinsmobility totalDistance 269.91322695899
scalar RSUExampleScenario.node[398].veinsmobility totalCO2Emission 84.022243364652
scalar RSUExampleScenario.node[559].appl generatedWSMs 0
scalar RSUExampleScenario.node[559].appl receivedWSMs 0
scalar RSUExampleScenario.node[559].appl generatedBSMs 16
scalar RSUExampleScenario.node[559].appl receivedBSMs 9679
scalar RSUExampleScenario.node[559].appl generatedWSAs 0
scalar RSUExampleScenario.node[559].appl receivedWSAs 0
scalar RSUExampleScenario.node[559].nic.phy80211p busyTime 0.063556999999998
scalar RSUExampleScenario.node[559].nic.mac1609_4 ReceivedUnicastPackets 0
scalar RSUExampleScenario.node[559].nic.mac1609_4 ReceivedBroadcasts 9679
scalar RSUExampleScenario.node[559].nic.mac1609_4 SentPackets 16
scalar RSUExampleScenario.node[559].nic.mac1609_4 SentAcknowledgements 0
scalar RSUExampleScenario.node[559].nic.mac1609_4 RetriesExceeded 0
scalar RSUExampleScenario.node[559].nic.mac1609_4 SNIRLostPackets 99
scalar RSUExampleScenario.node[559].nic.mac1609_4 RXTXLostPackets 0
scalar RSUExampleScenario.node[559].nic.mac1609_4 TotalLostPackets 99
scalar RSUExampleScenario.node[559].nic.mac1609_4 DroppedPacketsInMac 0
scalar RSUExampleScenario.node[559].nic.mac1609_4 TooLittleTime 0
scalar RSUExampleScenario.node[559].nic.mac1609_4 TimesIntoBackoff 16
scalar RSUExampleScenario.node[559].nic.mac1609_4 SlotsBackoff 17
scalar RSUExampleScenario.node[559].nic.mac1609_4 NumInternalContention 0
scalar RSUExampleScenario.node[559].nic.mac1609_4 totalBusyTime 1.012352
scalar RSUExampleScenario.node[559].nic.mac1609_4 retriesExceeded:count 0
attr source org_car2x_veins_modules_mac_sigRetriesExceeded
scalar RSUExampleScenario.node[559].nic.mac1609_4 sentAcks:count 0
attr source org_car2x_veins_modules_mac_sigSentAck
scalar RSUExampleScenario.node[559].nic.mac1609_4 sentPackets:count 16
attr source org_car2x_veins_modules_mac_sigSentPacket
scalar RSUExampleScenario.node[559].nic.mac1609_4 collisions:count 0
attr source org_car2x_veins_modules_mac_sigCollision
scalar RSUExampleScenario.node[559].nic.mac1609_4 channelBusy:timeavg 0.063271999999997
attr source org_car2x_veins_modules_mac_sigChannelBusy
scalar RSUExampleScenario.node[559].veinsmobility startTime 21
scalar RSUExampleScenario.node[559].veinsmobility totalTime 15
scalar RSUExampleScenario.node[559].veinsmobility stopTime 37
scalar RSUExampleScenario.node[559].veinsmobility minSpeed 1.6090973542305
scalar RSUExampleScenario.node[559].veinsmobility maxSpeed 13.578630723036
scalar RSUExampleScenario.node[559].veinsmobility totalDistance 159.31502463694
scalar RSUExampleScenario.node[559].veinsmobility totalCO2Emission 50.150055266833
scalar RSUExampleScenario.node[526].appl generatedWSMs 0
scalar RSUExampleScenario.node[526].appl receivedWSMs 0
scalar RSUExampleScenario.node[526].appl generatedBSMs 18
scalar RSUExampleScenario.node[526].appl receivedBSMs 10754
scalar RSUExampleScenario.node[526].appl generatedWSAs 0
scalar RSUExampleScenario.node[526].appl receivedWSAs 0
scalar RSUExampleScenario.node[526].nic.phy80211p busyTime 0.062764000000004
scalar RSUExampleScenario.node[526].nic.mac1609_4 ReceivedUnicastPackets 0
scalar RSUExampleScenario.node[526].nic.mac1609_4 ReceivedBroadcasts 10754
scalar RSUExampleScenario.node[526].nic.mac1609_4 SentPackets 18
scalar RSUExampleScenario.node[526].nic.mac1609_4 SentAcknowledgements 0
scalar RSUExampleScenario.node[526].nic.mac1609_4 RetriesExceeded 0
scalar RSUExampleScenario.node[526].nic.mac1609_4 SNIRLostPackets 109
scalar RSUExampleScenario.node[526].nic.mac1609_4 RXTXLostPackets 0
scalar RSUExampleScenario.node[526].nic.mac1609_4 TotalLostPackets 109
scalar RSUExampleScenario.node[526].nic.mac1609_4 DroppedPacketsInMac 0
scalar RSUExampleScenario.node[526].nic.mac1609_4 TooLittleTime 0
scalar RSUExampleScenario.node[526].nic.mac1609_4 TimesIntoBackoff 20
scalar RSUExampleScenario.node[526].nic.mac1609_4 SlotsBackoff 33
scalar RSUExampleScenario.node[526].nic.mac1609_4 NumInternalContention 0
scalar RSUExampleScenario.node[526].nic.mac1609_4 totalBusyTime 1.124882433094
scalar RSUExampleScenario.node[526].nic.mac1609_4 retriesExceeded:count 0
attr source org_car2x_veins_modules_mac_sigRetriesExceeded
scalar RSUExampleScenario.node[526].nic.mac1609_4 sentAcks:count 0
attr source org_car2x_veins_modules_mac_sigSentAck
scalar RSUExampleScenario.node[526].nic.mac1609_4 sentPackets:count 18
attr source org_car2x_veins_modules_mac_sigSentPacket
scalar RSUExampleScenario.node[526].nic.mac1609_4 collisions:count 0
attr source org_car2x_veins_modules_mac_sigCollision
scalar RSUExampleScenario.node[526].nic.mac1609_4 channelBusy:timeavg 0.062493468505226
attr source org_car2x_veins_modules_mac_sigChannelBusy
scalar RSUExampleScenario.node[526].veinsmobility startTime 19
scalar RSUExampleScenario.node[526].veinsmobility totalTime 17
scalar RSUExampleScenario.node[526].veinsmobility stopTime 37
scalar RSUExampleScenario.node[526].veinsmobility minSpeed 1.919311339478
scalar RSUExampleScenario.node[526].veinsmobility maxSpeed 13.538238444179
scalar RSUExampleScenario.node[526].veinsmobility totalDistance 156.97214640473
scalar RSUExampleScenario.node[526].veinsmobility totalCO2Emission 59.13098313961
scalar RSUExampleScenario.node[259].appl generatedWSMs 0
scalar RSUExampleScenario.node[259].appl receivedWSMs 0
scalar RSUExampleScenario.node[259].appl generatedBSMs 30
scalar RSUExampleScenario.node[259].appl receivedBSMs 15607
scalar RSUExampleScenario.node[259].appl generatedWSAs 0
scalar RSUExampleScenario.node[259].appl receivedWSAs 0
scalar RSUExampleScenario.node[259].nic.phy80211p busyTime 0.054582666666686
scalar RSUExampleScenario.node[259].nic.mac1609_4 ReceivedUnicastPackets 0
scalar RSUExampleScenario.node[259].nic.mac1609_4 ReceivedBroadcasts 15607
scalar RSUExampleScenario.node[259].nic.mac1609_4 SentPackets 29
scalar RSUExampleScenario.node[259].nic.mac1609_4 SentAcknowledgements 0
scalar RSUExampleScenario.node[259].nic.mac1609_4 RetriesExceeded 0
scalar RSUExampleScenario.node[259].nic.mac1609_4 SNIRLostPackets 138
scalar RSUExampleScenario.node[259].nic.mac1609_4 RXTXLostPackets 0
scalar RSUExampleScenario.node[259].nic.mac1609_4 TotalLostPackets 138
scalar RSUExampleScenario.node[259].nic.mac1609_4 DroppedPacketsInMac 0
scalar RSUExampleScenario.node[259].nic.mac1609_4 TooLittleTime 0
scalar RSUExampleScenario.node[259].nic.mac1609_4 TimesIntoBackoff 30
scalar RSUExampleScenario.node[259].nic.mac1609_4 SlotsBackoff 44
scalar RSUExampleScenario.node[259].nic.mac1609_4 NumInternalContention 0
scalar RSUExampleScenario.node[259].nic.mac1609_4 totalBusyTime 1.631789968435
scalar RSUExampleScenario.node[259].nic.mac1609_4 retriesExceeded:count 0
attr source org_car2x_veins_modules_mac_sigRetriesExceeded
scalar RSUExampleScenario.node[259].nic.mac1609_4 sentAcks:count 0
attr source org_car2x_veins_modules_mac_sigSentAck
scalar RSUExampleScenario.node[259].nic.mac1609_4 sentPackets:count 29
attr source org_car2x_veins_modules_mac_sigSentPacket
scalar RSUExampleScenario.node[259].nic.mac1609_4 collisions:count 0
attr source org_car2x_veins_modules_mac_sigCollision
scalar RSUExampleScenario.node[259].nic.mac1609_4 channelBusy:timeavg 0.054392998947853
attr source org_car2x_veins_modules_mac_sigChannelBusy
scalar RSUExampleScenario.node[259].veinsmobility startTime 7
scalar RSUExampleScenario.node[259].veinsmobility totalTime 29
scalar RSUExampleScenario.node[259].veinsmobility stopTime 37
scalar RSUExampleScenario.node[259].veinsmobility minSpeed 0.011739116817899
scalar RSUExampleScenario.node[259].veinsmobility maxSpeed 13.328807547153
scalar RSUExampleScenario.node[259].veinsmobility totalDistance 194.932286928
scalar RSUExampleScenario.node[259].veinsmobility totalCO2Emission 89.291426923596
scalar RSUExampleScenario.node[325].appl generatedWSMs 0
scalar RSUExampleScenario.node[325].appl receivedWSMs 0
scalar RSUExampleScenario.node[325].appl generatedBSMs 30
scalar RSUExampleScenario.node[325].appl receivedBSMs 16382
scalar RSUExampleScenario.node[325].appl generatedWSAs 0
scalar RSUExampleScenario.node[325].appl receivedWSAs 0
scalar RSUExampleScenario.node[325].nic.phy80211p busyTime 0.057314400000022
scalar RSUExampleScenario.node[325].nic.mac1609_4 ReceivedUnicastPackets 0
scalar RSUExampleScenario.node[325].nic.mac1609_4 ReceivedBroadcasts 16382
scalar RSUExampleScenario.node[325].nic.mac1609_4 SentPackets 30
scalar RSUExampleScenario.node[325].nic.mac1609_4 SentAcknowledgements 0
scalar RSUExampleScenario.node[325].nic.mac1609_4 RetriesExceeded 0
scalar RSUExampleScenario.node[325].nic.mac1609_4 SNIRLostPackets 151
scalar RSUExampleScenario.node[325].nic.mac1609_4 RXTXLostPackets 0
scalar RSUExampleScenario.node[325].nic.mac1609_4 TotalLostPackets 151
scalar RSUExampleScenario.node[325].nic.mac1609_4 DroppedPacketsInMac 0
scalar RSUExampleScenario.node[325].nic.mac1609_4 TooLittleTime 0
scalar RSUExampleScenario.node[325].nic.mac1609_4 TimesIntoBackoff 30
scalar RSUExampleScenario.node[325].nic.mac1609_4 SlotsBackoff 41
scalar RSUExampleScenario.node[325].nic.mac1609_4 NumInternalContention 0
scalar RSUExampleScenario.node[325].nic.mac1609_4 totalBusyTime 1.713015429115
scalar RSUExampleScenario.node[325].nic.mac1609_4 retriesExceeded:count 0
attr source org_car2x_veins_modules_mac_sigRetriesExceeded
scalar RSUExampleScenario.node[325].nic.mac1609_4 sentAcks:count 0
attr source org_car2x_veins_modules_mac_sigSentAck
scalar RSUExampleScenario.node[325].nic.mac1609_4 sentPackets:count 30
attr source org_car2x_veins_modules_mac_sigSentPacket
scalar RSUExampleScenario.node[325].nic.mac1609_4 collisions:count 0
attr source org_car2x_veins_modules_mac_sigCollision
scalar RSUExampleScenario.node[325].nic.mac1609_4 channelBusy:timeavg 0.057100514303855
attr source org_car2x_veins_modules_mac_sigChannelBusy
scalar RSUExampleScenario.node[325].veinsmobility startTime 9
scalar RSUExampleScenario.node[325].veinsmobility totalTime 29
scalar RSUExampleScenario.node[325].veinsmobility stopTime 39
scalar RSUExampleScenario.node[325].veinsmobility minSpeed 0.44688314482139
scalar RSUExampleScenario.node[325].veinsmobility maxSpeed 13.621247003437
scalar RSUExampleScenario.node[325].veinsmobility totalDistance 221.14842975514
scalar RSUExampleScenario.node[325].veinsmobility totalCO2Emission 99.156704531424
scalar RSUExampleScenario.node[135].appl generatedWSMs 0
scalar RSUExampleScenario.node[135].appl receivedWSMs 0
scalar RSUExampleScenario.node[135].appl generatedBSMs 35
scalar RSUExampleScenario.node[135].appl receivedBSMs 17456
scalar RSUExampleScenario.node[135].appl generatedWSAs 0
scalar RSUExampleScenario.node[135].appl receivedWSAs 0
scalar RSUExampleScenario.node[135].nic.phy80211p busyTime 0.052347657142879
scalar RSUExampleScenario.node[135].nic.mac1609_4 ReceivedUnicastPackets 0
scalar RSUExampleScenario.node[135].nic.mac1609_4 ReceivedBroadcasts 17456
scalar RSUExampleScenario.node[135].nic.mac1609_4 SentPackets 35
scalar RSUExampleScenario.node[135].nic.mac1609_4 SentAcknowledgements 0
scalar RSUExampleScenario.node[135].nic.mac1609_4 RetriesExceeded 0
scalar RSUExampleScenario.node[135].nic.mac1609_4 SNIRLostPackets 161
scalar RSUExampleScenario.node[135].nic.mac1609_4 RXTXLostPackets 0
scalar RSUExampleScenario.node[135].nic.mac1609_4 TotalLostPackets 161
scalar RSUExampleScenario.node[135].nic.mac1609_4 DroppedPacketsInMac 0
scalar RSUExampleScenario.node[135].nic.mac1609_4 TooLittleTime 0
scalar RSUExampleScenario.node[135].nic.mac1609_4 TimesIntoBackoff 38
scalar RSUExampleScenario.node[135].nic.mac1609_4 SlotsBackoff 49
scalar RSUExampleScenario.node[135].nic.mac1609_4 NumInternalContention 0
scalar RSUExampleScenario.node[135].nic.mac1609_4 totalBusyTime 1.826067311894
scalar RSUExampleScenario.node[135].nic.mac1609_4 retriesExceeded:count 0
attr source org_car2x_veins_modules_mac_sigRetriesExceeded
scalar RSUExampleScenario.node[135].nic.mac1609_4 sentAcks:count 0
attr source org_car2x_veins_modules_mac_sigSentAck
scalar RSUExampleScenario.node[135].nic.mac1609_4 sentPackets:count 35
attr source org_car2x_veins_modules_mac_sigSentPacket
scalar RSUExampleScenario.node[135].nic.mac1609_4 collisions:count 0
attr source org_car2x_veins_modules_mac_sigCollision
scalar RSUExampleScenario.node[135].nic.mac1609_4 channelBusy:timeavg 0.052173351768422
attr source org_car2x_veins_modules_mac_sigChannelBusy
scalar RSUExampleScenario.node[135].veinsmobility startTime 4
scalar RSUExampleScenario.node[135].veinsmobility totalTime 34
scalar RSUExampleScenario.node[135].veinsmobility stopTime 39
scalar RSUExampleScenario.node[135].veinsmobility minSpeed 0
scalar RSUExampleScenario.node[135].veinsmobility maxSpeed 12.802760827511
scalar RSUExampleScenario.node[135].veinsmobility totalDistance 191.11677195137
scalar RSUExampleScenario.node[135].veinsmobility totalCO2Emission 88.731294891678
scalar RSUExampleScenario.node[160].appl generatedWSMs 0
scalar RSUExampleScenario.node[160].appl receivedWSMs 0
scalar RSUExampleScenario.node[160].appl generatedBSMs 35
scalar RSUExampleScenario.node[160].appl receivedBSMs 18007
scalar RSUExampleScenario.node[160].appl generatedWSAs 0
scalar RSUExampleScenario.node[160].appl receivedWSAs 0
scalar RSUExampleScenario.node[160].nic.phy80211p busyTime 0.053958171428595
scalar RSUExampleScenario.node[160].nic.mac1609_4 ReceivedUnicastPackets 0
scalar RSUExampleScenario.node[160].nic.mac1609_4 ReceivedBroadcasts 18007
scalar RSUExampleScenario.node[160].nic.mac1609_4 SentPackets 35
scalar RSUExampleScenario.node[160].nic.mac1609_4 SentAcknowledgements 0
scalar RSUExampleScenario.node[160].nic.mac1609_4 RetriesExceeded 0
scalar RSUExampleScenario.node[160].nic.mac1609_4 SNIRLostPackets 151
scalar RSUExampleScenario.node[160].nic.mac1609_4 RXTXLostPackets 0
scalar RSUExampleScenario.node[160].nic.mac1609_4 TotalLostPackets 151
scalar RSUExampleScenario.node[160].nic.mac1609_4 DroppedPacketsInMac 0
scalar RSUExampleScenario.node[160].nic.mac1609_4 TooLittleTime 0
scalar RSUExampleScenario.node[160].nic.mac1609_4 TimesIntoBackoff 37
scalar RSUExampleScenario.node[160].nic.mac1609_4 SlotsBackoff 60
scalar RSUExampleScenario.node[160].nic.mac1609_4 NumInternalContention 0
scalar RSUExampleScenario.node[160].nic.mac1609_4 totalBusyTime 1.881915208572
scalar RSUExampleScenario.node[160].nic.mac1609_4 retriesExceeded:count 0
attr source org_car2x_veins_modules_mac_sigRetriesExceeded
scalar RSUExampleScenario.node[160].nic.mac1609_4 sentAcks:count 0
attr source org_car2x_veins_modules_mac_sigSentAck
scalar RSUExampleScenario.node[160].nic.mac1609_4 sentPackets:count 35
attr source org_car2x_veins_modules_mac_sigSentPacket
scalar RSUExampleScenario.node[160].nic.mac1609_4 collisions:count 0
attr source org_car2x_veins_modules_mac_sigCollision
scalar RSUExampleScenario.node[160].nic.mac1609_4 channelBusy:timeavg 0.053770640856281
attr source org_car2x_veins_modules_mac_sigChannelBusy
scalar RSUExampleScenario.node[160].veinsmobility startTime 5
scalar RSUExampleScenario.node[160].veinsmobility totalTime 34
scalar RSUExampleScenario.node[160].veinsmobility stopTime 40
scalar RSUExampleScenario.node[160].veinsmobility minSpeed 0.020861464292325
scalar RSUExampleScenario.node[160].veinsmobility maxSpeed 13.893828239478
scalar RSUExampleScenario.node[160].veinsmobility totalDistance 298.19225899573
scalar RSUExampleScenario.node[160].veinsmobility totalCO2Emission 106.63948697634
scalar RSUExampleScenario.node[61].appl generatedWSMs 0
scalar RSUExampleScenario.node[61].appl receivedWSMs 0
scalar RSUExampleScenario.node[61].appl generatedBSMs 41
scalar RSUExampleScenario.node[61].appl receivedBSMs 20283
scalar RSUExampleScenario.node[61].appl generatedWSAs 0
scalar RSUExampleScenario.node[61].appl receivedWSAs 0
scalar RSUExampleScenario.node[61].nic.phy80211p busyTime 0.051918829268312
scalar RSUExampleScenario.node[61].nic.mac1609_4 ReceivedUnicastPackets 0
scalar RSUExampleScenario.node[61].nic.mac1609_4 ReceivedBroadcasts 20283
scalar RSUExampleScenario.node[61].nic.mac1609_4 SentPackets 40
scalar RSUExampleScenario.node[61].nic.mac1609_4 SentAcknowledgements 0
scalar RSUExampleScenario.node[61].nic.mac1609_4 RetriesExceeded 0
scalar RSUExampleScenario.node[61].nic.mac1609_4 SNIRLostPackets 185
scalar RSUExampleScenario.node[61].nic.mac1609_4 RXTXLostPackets 0
scalar RSUExampleScenario.node[61].nic.mac1609_4 TotalLostPackets 185
scalar RSUExampleScenario.node[61].nic.mac1609_4 DroppedPacketsInMac 0
scalar RSUExampleScenario.node[61].nic.mac1609_4 TooLittleTime 0
scalar RSUExampleScenario.node[61].nic.mac1609_4 TimesIntoBackoff 43
scalar RSUExampleScenario.node[61].nic.mac1609_4 SlotsBackoff 64
scalar RSUExampleScenario.node[61].nic.mac1609_4 NumInternalContention 0
scalar RSUExampleScenario.node[61].nic.mac1609_4 totalBusyTime 2.121120524244
scalar RSUExampleScenario.node[61].nic.mac1609_4 retriesExceeded:count 0
attr source org_car2x_veins_modules_mac_sigRetriesExceeded
scalar RSUExampleScenario.node[61].nic.mac1609_4 sentAcks:count 0
attr source org_car2x_veins_modules_mac_sigSentAck
scalar RSUExampleScenario.node[61].nic.mac1609_4 sentPackets:count 40
attr source org_car2x_veins_modules_mac_sigSentPacket
scalar RSUExampleScenario.node[61].nic.mac1609_4 collisions:count 0
attr source org_car2x_veins_modules_mac_sigCollision
scalar RSUExampleScenario.node[61].nic.mac1609_4 channelBusy:timeavg 0.0517346469328
attr source org_car2x_veins_modules_mac_sigChannelBusy
scalar RSUExampleScenario.node[61].veinsmobility startTime 2
scalar RSUExampleScenario.node[61].veinsmobility totalTime 40
scalar RSUExampleScenario.node[61].veinsmobility stopTime 43
scalar RSUExampleScenario.node[61].veinsmobility minSpeed 2.213205013168
scalar RSUExampleScenario.node[61].veinsmobility maxSpeed 13.747715544072
scalar RSUExampleScenario.node[61].veinsmobility totalDistance 384.22836760812
scalar RSUExampleScenario.node[61].veinsmobility totalCO2Emission 142.25672600245
scalar RSUExampleScenario.node[496].appl generatedWSMs 0
scalar RSUExampleScenario.node[496].appl receivedWSMs 0
scalar RSUExampleScenario.node[496].appl generatedBSMs 27
scalar RSUExampleScenario.node[496].appl receivedBSMs 16441
scalar RSUExampleScenario.node[496].appl generatedWSAs 0
scalar RSUExampleScenario.node[496].appl receivedWSAs 0
scalar RSUExampleScenario.node[496].nic.phy80211p busyTime 0.064002370370395
scalar RSUExampleScenario.node[496].nic.mac1609_4 ReceivedUnicastPackets 0
scalar RSUExampleScenario.node[496].nic.mac1609_4 ReceivedBroadcasts 16441
scalar RSUExampleScenario.node[496].nic.mac1609_4 SentPackets 26
scalar RSUExampleScenario.node[496].nic.mac1609_4 SentAcknowledgements 0
scalar RSUExampleScenario.node[496].nic.mac1609_4 RetriesExceeded 0
scalar RSUExampleScenario.node[496].nic.mac1609_4 SNIRLostPackets 175
scalar RSUExampleScenario.node[496].nic.mac1609_4 RXTXLostPackets 0
scalar RSUExampleScenario.node[496].nic.mac1609_4 TotalLostPackets 175
scalar RSUExampleScenario.node[496].nic.mac1609_4 DroppedPacketsInMac 0
scalar RSUExampleScenario.node[496].nic.mac1609_4 TooLittleTime 0
scalar RSUExampleScenario.node[496].nic.mac1609_4 TimesIntoBackoff 29
scalar RSUExampleScenario.node[496].nic.mac1609_4 SlotsBackoff 36
scalar RSUExampleScenario.node[496].nic.mac1609_4 NumInternalContention 0
scalar RSUExampleScenario.node[496].nic.mac1609_4 totalBusyTime 1.719874771243
scalar RSUExampleScenario.node[496].nic.mac1609_4 retriesExceeded:count 0
attr source org_car2x_veins_modules_mac_sigRetriesExceeded
scalar RSUExampleScenario.node[496].nic.mac1609_4 sentAcks:count 0
attr source org_car2x_veins_modules_mac_sigSentAck
scalar RSUExampleScenario.node[496].nic.mac1609_4 sentPackets:count 26
attr source org_car2x_veins_modules_mac_sigSentPacket
scalar RSUExampleScenario.node[496].nic.mac1609_4 collisions:count 0
attr source org_car2x_veins_modules_mac_sigCollision
scalar RSUExampleScenario.node[496].nic.mac1609_4 channelBusy:timeavg 0.063699065601617
attr source org_car2x_veins_modules_mac_sigChannelBusy
scalar RSUExampleScenario.node[496].veinsmobility startTime 17
scalar RSUExampleScenario.node[496].veinsmobility totalTime 26
scalar RSUExampleScenario.node[496].veinsmobility stopTime 44
scalar RSUExampleScenario.node[496].veinsmobility minSpeed 2.265976450895
scalar RSUExampleScenario.node[496].veinsmobility maxSpeed 13.838227784075
scalar RSUExampleScenario.node[496].veinsmobility totalDistance 259.11270745251
scalar RSUExampleScenario.node[496].veinsmobility totalCO2Emission 83.06194945857
scalar RSUExampleScenario.node[150].appl generatedWSMs 0
scalar RSUExampleScenario.node[150].appl receivedWSMs 0
scalar RSUExampleScenario.node[150].appl generatedBSMs 40
scalar RSUExampleScenario.node[150].appl receivedBSMs 20810
scalar RSUExampleScenario.node[150].appl generatedWSAs 0
scalar RSUExampleScenario.node[150].appl receivedWSAs 0
scalar RSUExampleScenario.node[150].nic.phy80211p busyTime 0.054607800000018
scalar RSUExampleScenario.node[150].nic.mac1609_4 ReceivedUnicastPackets 0
scalar RSUExampleScenario.node[150].nic.mac1609_4 ReceivedBroadcasts 20810
scalar RSUExampleScenario.node[150].nic.mac1609_4 SentPackets 39
scalar RSUExampleScenario.node[150].nic.mac1609_4 SentAcknowledgements 0
scalar RSUExampleScenario.node[150].nic.mac1609_4 RetriesExceeded 0
scalar RSUExampleScenario.node[150].nic.mac1609_4 SNIRLostPackets 193
scalar RSUExampleScenario.node[150].nic.mac1609_4 RXTXLostPackets 1
scalar RSUExampleScenario.node[150].nic.mac1609_4 TotalLostPackets 194
scalar RSUExampleScenario.node[150].nic.mac1609_4 DroppedPacketsInMac 0
scalar RSUExampleScenario.node[150].nic.mac1609_4 TooLittleTime 0
scalar RSUExampleScenario.node[150].nic.mac1609_4 TimesIntoBackoff 43
scalar RSUExampleScenario.node[150].nic.mac1609_4 SlotsBackoff 73
scalar RSUExampleScenario.node[150].nic.mac1609_4 NumInternalContention 0
scalar RSUExampleScenario.node[150].nic.mac1609_4 totalBusyTime 2.176240122557
scalar RSUExampleScenario.node[150].nic.mac1609_4 retriesExceeded:count 0
attr source org_car2x_veins_modules_mac_sigRetriesExceeded
scalar RSUExampleScenario.node[150].nic.mac1609_4 sentAcks:count 0
attr source org_car2x_veins_modules_mac_sigSentAck
[...]
scalar RSUExampleScenario.node[238].veinsmobility totalCO2Emission 622.4172970123
scalar RSUExampleScenario.node[525].appl generatedWSMs 0
scalar RSUExampleScenario.node[525].appl receivedWSMs 0
scalar RSUExampleScenario.node[525].appl generatedBSMs 462
scalar RSUExampleScenario.node[525].appl receivedBSMs 164025
scalar RSUExampleScenario.node[525].appl generatedWSAs 0
scalar RSUExampleScenario.node[525].appl receivedWSAs 0
scalar RSUExampleScenario.node[525].nic.phy80211p busyTime 0.037202060606147
scalar RSUExampleScenario.node[525].nic.mac1609_4 ReceivedUnicastPackets 0
scalar RSUExampleScenario.node[525].nic.mac1609_4 ReceivedBroadcasts 164025
scalar RSUExampleScenario.node[525].nic.mac1609_4 SentPackets 461
scalar RSUExampleScenario.node[525].nic.mac1609_4 SentAcknowledgements 0
scalar RSUExampleScenario.node[525].nic.mac1609_4 RetriesExceeded 0
scalar RSUExampleScenario.node[525].nic.mac1609_4 SNIRLostPackets 1238
scalar RSUExampleScenario.node[525].nic.mac1609_4 RXTXLostPackets 4
scalar RSUExampleScenario.node[525].nic.mac1609_4 TotalLostPackets 1242
scalar RSUExampleScenario.node[525].nic.mac1609_4 DroppedPacketsInMac 0
scalar RSUExampleScenario.node[525].nic.mac1609_4 TooLittleTime 0
scalar RSUExampleScenario.node[525].nic.mac1609_4 TimesIntoBackoff 485
scalar RSUExampleScenario.node[525].nic.mac1609_4 SlotsBackoff 742
scalar RSUExampleScenario.node[525].nic.mac1609_4 NumInternalContention 0
scalar RSUExampleScenario.node[525].nic.mac1609_4 totalBusyTime 17.157770690876
scalar RSUExampleScenario.node[525].nic.mac1609_4 retriesExceeded:count 0
attr source org_car2x_veins_modules_mac_sigRetriesExceeded
scalar RSUExampleScenario.node[525].nic.mac1609_4 sentAcks:count 0
attr source org_car2x_veins_modules_mac_sigSentAck
scalar RSUExampleScenario.node[525].nic.mac1609_4 sentPackets:count 461
attr source org_car2x_veins_modules_mac_sigSentPacket
scalar RSUExampleScenario.node[525].nic.mac1609_4 collisions:count 0
attr source org_car2x_veins_modules_mac_sigCollision
scalar RSUExampleScenario.node[525].nic.mac1609_4 channelBusy:timeavg 0.037138031798519
attr source org_car2x_veins_modules_mac_sigChannelBusy
scalar RSUExampleScenario.node[525].veinsmobility startTime 19
scalar RSUExampleScenario.node[525].veinsmobility totalTime 461
scalar RSUExampleScenario.node[525].veinsmobility stopTime 481
scalar RSUExampleScenario.node[525].veinsmobility minSpeed 0
scalar RSUExampleScenario.node[525].veinsmobility maxSpeed 13.856101016328
scalar RSUExampleScenario.node[525].veinsmobility totalDistance 558.77784229079
scalar RSUExampleScenario.node[525].veinsmobility totalCO2Emission 604.40758720967
scalar RSUExampleScenario.node[718].appl generatedWSMs 0
scalar RSUExampleScenario.node[718].appl receivedWSMs 0
scalar RSUExampleScenario.node[718].appl generatedBSMs 437
scalar RSUExampleScenario.node[718].appl receivedBSMs 148637
scalar RSUExampleScenario.node[718].appl generatedWSAs 0
scalar RSUExampleScenario.node[718].appl receivedWSAs 0
scalar RSUExampleScenario.node[718].nic.phy80211p busyTime 0.035621070938295
scalar RSUExampleScenario.node[718].nic.mac1609_4 ReceivedUnicastPackets 0
scalar RSUExampleScenario.node[718].nic.mac1609_4 ReceivedBroadcasts 148637
scalar RSUExampleScenario.node[718].nic.mac1609_4 SentPackets 437
scalar RSUExampleScenario.node[718].nic.mac1609_4 SentAcknowledgements 0
scalar RSUExampleScenario.node[718].nic.mac1609_4 RetriesExceeded 0
scalar RSUExampleScenario.node[718].nic.mac1609_4 SNIRLostPackets 1040
scalar RSUExampleScenario.node[718].nic.mac1609_4 RXTXLostPackets 2
scalar RSUExampleScenario.node[718].nic.mac1609_4 TotalLostPackets 1042
scalar RSUExampleScenario.node[718].nic.mac1609_4 DroppedPacketsInMac 0
scalar RSUExampleScenario.node[718].nic.mac1609_4 TooLittleTime 0
scalar RSUExampleScenario.node[718].nic.mac1609_4 TimesIntoBackoff 456
scalar RSUExampleScenario.node[718].nic.mac1609_4 SlotsBackoff 669
scalar RSUExampleScenario.node[718].nic.mac1609_4 NumInternalContention 0
scalar RSUExampleScenario.node[718].nic.mac1609_4 totalBusyTime 15.544296318886
scalar RSUExampleScenario.node[718].nic.mac1609_4 retriesExceeded:count 0
attr source org_car2x_veins_modules_mac_sigRetriesExceeded
scalar RSUExampleScenario.node[718].nic.mac1609_4 sentAcks:count 0
attr source org_car2x_veins_modules_mac_sigSentAck
scalar RSUExampleScenario.node[718].nic.mac1609_4 sentPackets:count 437
attr source org_car2x_veins_modules_mac_sigSentPacket
scalar RSUExampleScenario.node[718].nic.mac1609_4 collisions:count 0
attr source org_car2x_veins_modules_mac_sigCollision
scalar RSUExampleScenario.node[718].nic.mac1609_4 channelBusy:timeavg 0.035570472125676
attr source org_car2x_veins_modules_mac_sigChannelBusy
scalar RSUExampleScenario.node[718].veinsmobility startTime 44
scalar RSUExampleScenario.node[718].veinsmobility totalTime 436
scalar RSUExampleScenario.node[718].veinsmobility stopTime 481
scalar RSUExampleScenario.node[718].veinsmobility minSpeed 0
scalar RSUExampleScenario.node[718].veinsmobility maxSpeed 13.875997976866
scalar RSUExampleScenario.node[718].veinsmobility totalDistance 717.17113546055
scalar RSUExampleScenario.node[718].veinsmobility totalCO2Emission 558.7659365701
scalar RSUExampleScenario.node[341].appl generatedWSMs 0
scalar RSUExampleScenario.node[341].appl receivedWSMs 0
scalar RSUExampleScenario.node[341].appl generatedBSMs 475
scalar RSUExampleScenario.node[341].appl receivedBSMs 168341
scalar RSUExampleScenario.node[341].appl generatedWSAs 0
scalar RSUExampleScenario.node[341].appl receivedWSAs 0
scalar RSUExampleScenario.node[341].nic.phy80211p busyTime 0.037135663157982
scalar RSUExampleScenario.node[341].nic.mac1609_4 ReceivedUnicastPackets 0
scalar RSUExampleScenario.node[341].nic.mac1609_4 ReceivedBroadcasts 168341
scalar RSUExampleScenario.node[341].nic.mac1609_4 SentPackets 474
scalar RSUExampleScenario.node[341].nic.mac1609_4 SentAcknowledgements 0
scalar RSUExampleScenario.node[341].nic.mac1609_4 RetriesExceeded 0
scalar RSUExampleScenario.node[341].nic.mac1609_4 SNIRLostPackets 1269
scalar RSUExampleScenario.node[341].nic.mac1609_4 RXTXLostPackets 2
scalar RSUExampleScenario.node[341].nic.mac1609_4 TotalLostPackets 1271
scalar RSUExampleScenario.node[341].nic.mac1609_4 DroppedPacketsInMac 0
scalar RSUExampleScenario.node[341].nic.mac1609_4 TooLittleTime 0
scalar RSUExampleScenario.node[341].nic.mac1609_4 TimesIntoBackoff 490
scalar RSUExampleScenario.node[341].nic.mac1609_4 SlotsBackoff 754
scalar RSUExampleScenario.node[341].nic.mac1609_4 NumInternalContention 0
scalar RSUExampleScenario.node[341].nic.mac1609_4 totalBusyTime 17.609134805707
scalar RSUExampleScenario.node[341].nic.mac1609_4 retriesExceeded:count 0
attr source org_car2x_veins_modules_mac_sigRetriesExceeded
scalar RSUExampleScenario.node[341].nic.mac1609_4 sentAcks:count 0
attr source org_car2x_veins_modules_mac_sigSentAck
scalar RSUExampleScenario.node[341].nic.mac1609_4 sentPackets:count 474
attr source org_car2x_veins_modules_mac_sigSentPacket
scalar RSUExampleScenario.node[341].nic.mac1609_4 collisions:count 0
attr source org_car2x_veins_modules_mac_sigCollision
scalar RSUExampleScenario.node[341].nic.mac1609_4 channelBusy:timeavg 0.037071862748944
attr source org_car2x_veins_modules_mac_sigChannelBusy
scalar RSUExampleScenario.node[341].veinsmobility startTime 9
scalar RSUExampleScenario.node[341].veinsmobility totalTime 474
scalar RSUExampleScenario.node[341].veinsmobility stopTime 484
scalar RSUExampleScenario.node[341].veinsmobility minSpeed 0
scalar RSUExampleScenario.node[341].veinsmobility maxSpeed 13.619840569794
scalar RSUExampleScenario.node[341].veinsmobility totalDistance 655.26358024209
scalar RSUExampleScenario.node[341].veinsmobility totalCO2Emission 649.46630051626
scalar RSUExampleScenario.node[255].appl generatedWSMs 0
scalar RSUExampleScenario.node[255].appl receivedWSMs 0
scalar RSUExampleScenario.node[255].appl generatedBSMs 478
scalar RSUExampleScenario.node[255].appl receivedBSMs 168931
scalar RSUExampleScenario.node[255].appl generatedWSAs 0
scalar RSUExampleScenario.node[255].appl receivedWSAs 0
scalar RSUExampleScenario.node[255].nic.phy80211p busyTime 0.037022041841091
scalar RSUExampleScenario.node[255].nic.mac1609_4 ReceivedUnicastPackets 0
scalar RSUExampleScenario.node[255].nic.mac1609_4 ReceivedBroadcasts 168931
scalar RSUExampleScenario.node[255].nic.mac1609_4 SentPackets 478
scalar RSUExampleScenario.node[255].nic.mac1609_4 SentAcknowledgements 0
scalar RSUExampleScenario.node[255].nic.mac1609_4 RetriesExceeded 0
scalar RSUExampleScenario.node[255].nic.mac1609_4 SNIRLostPackets 1228
scalar RSUExampleScenario.node[255].nic.mac1609_4 RXTXLostPackets 4
scalar RSUExampleScenario.node[255].nic.mac1609_4 TotalLostPackets 1232
scalar RSUExampleScenario.node[255].nic.mac1609_4 DroppedPacketsInMac 0
scalar RSUExampleScenario.node[255].nic.mac1609_4 TooLittleTime 0
scalar RSUExampleScenario.node[255].nic.mac1609_4 TimesIntoBackoff 502
scalar RSUExampleScenario.node[255].nic.mac1609_4 SlotsBackoff 724
scalar RSUExampleScenario.node[255].nic.mac1609_4 NumInternalContention 0
scalar RSUExampleScenario.node[255].nic.mac1609_4 totalBusyTime 17.666762171657
scalar RSUExampleScenario.node[255].nic.mac1609_4 retriesExceeded:count 0
attr source org_car2x_veins_modules_mac_sigRetriesExceeded
scalar RSUExampleScenario.node[255].nic.mac1609_4 sentAcks:count 0
attr source org_car2x_veins_modules_mac_sigSentAck
scalar RSUExampleScenario.node[255].nic.mac1609_4 sentPackets:count 478
attr source org_car2x_veins_modules_mac_sigSentPacket
scalar RSUExampleScenario.node[255].nic.mac1609_4 collisions:count 0
attr source org_car2x_veins_modules_mac_sigCollision
scalar RSUExampleScenario.node[255].nic.mac1609_4 channelBusy:timeavg 0.036959753497277
attr source org_car2x_veins_modules_mac_sigChannelBusy
scalar RSUExampleScenario.node[255].veinsmobility startTime 7
scalar RSUExampleScenario.node[255].veinsmobility totalTime 477
scalar RSUExampleScenario.node[255].veinsmobility stopTime 485
scalar RSUExampleScenario.node[255].veinsmobility minSpeed 0
scalar RSUExampleScenario.node[255].veinsmobility maxSpeed 13.796650461596
scalar RSUExampleScenario.node[255].veinsmobility totalDistance 695.07392150333
scalar RSUExampleScenario.node[255].veinsmobility totalCO2Emission 656.90991496343
scalar RSUExampleScenario.node[489].appl generatedWSMs 0
scalar RSUExampleScenario.node[489].appl receivedWSMs 0
scalar RSUExampleScenario.node[489].appl generatedBSMs 469
scalar RSUExampleScenario.node[489].appl receivedBSMs 165504
scalar RSUExampleScenario.node[489].appl generatedWSAs 0
scalar RSUExampleScenario.node[489].appl receivedWSAs 0
scalar RSUExampleScenario.node[489].nic.phy80211p busyTime 0.036984972281536
scalar RSUExampleScenario.node[489].nic.mac1609_4 ReceivedUnicastPackets 0
scalar RSUExampleScenario.node[489].nic.mac1609_4 ReceivedBroadcasts 165504
scalar RSUExampleScenario.node[489].nic.mac1609_4 SentPackets 469
scalar RSUExampleScenario.node[489].nic.mac1609_4 SentAcknowledgements 0
scalar RSUExampleScenario.node[489].nic.mac1609_4 RetriesExceeded 0
scalar RSUExampleScenario.node[489].nic.mac1609_4 SNIRLostPackets 1284
scalar RSUExampleScenario.node[489].nic.mac1609_4 RXTXLostPackets 0
scalar RSUExampleScenario.node[489].nic.mac1609_4 TotalLostPackets 1284
scalar RSUExampleScenario.node[489].nic.mac1609_4 DroppedPacketsInMac 0
scalar RSUExampleScenario.node[489].nic.mac1609_4 TooLittleTime 0
scalar RSUExampleScenario.node[489].nic.mac1609_4 TimesIntoBackoff 487
scalar RSUExampleScenario.node[489].nic.mac1609_4 SlotsBackoff 707
scalar RSUExampleScenario.node[489].nic.mac1609_4 NumInternalContention 0
scalar RSUExampleScenario.node[489].nic.mac1609_4 totalBusyTime 17.315851695771
scalar RSUExampleScenario.node[489].nic.mac1609_4 retriesExceeded:count 0
attr source org_car2x_veins_modules_mac_sigRetriesExceeded
scalar RSUExampleScenario.node[489].nic.mac1609_4 sentAcks:count 0
attr source org_car2x_veins_modules_mac_sigSentAck
scalar RSUExampleScenario.node[489].nic.mac1609_4 sentPackets:count 469
attr source org_car2x_veins_modules_mac_sigSentPacket
scalar RSUExampleScenario.node[489].nic.mac1609_4 collisions:count 0
attr source org_car2x_veins_modules_mac_sigCollision
scalar RSUExampleScenario.node[489].nic.mac1609_4 channelBusy:timeavg 0.036920792528382
attr source org_car2x_veins_modules_mac_sigChannelBusy
scalar RSUExampleScenario.node[489].veinsmobility startTime 16
scalar RSUExampleScenario.node[489].veinsmobility totalTime 468
scalar RSUExampleScenario.node[489].veinsmobility stopTime 485
scalar RSUExampleScenario.node[489].veinsmobility minSpeed 0
scalar RSUExampleScenario.node[489].veinsmobility maxSpeed 13.839883427951
scalar RSUExampleScenario.node[489].veinsmobility totalDistance 706.22104536896
scalar RSUExampleScenario.node[489].veinsmobility totalCO2Emission 686.77308077445
scalar RSUExampleScenario.node[459].appl generatedWSMs 0
scalar RSUExampleScenario.node[459].appl receivedWSMs 0
scalar RSUExampleScenario.node[459].appl generatedBSMs 474
scalar RSUExampleScenario.node[459].appl receivedBSMs 166439
scalar RSUExampleScenario.node[459].appl generatedWSAs 0
scalar RSUExampleScenario.node[459].appl receivedWSAs 0
scalar RSUExampleScenario.node[459].nic.phy80211p busyTime 0.036797350211057
scalar RSUExampleScenario.node[459].nic.mac1609_4 ReceivedUnicastPackets 0
scalar RSUExampleScenario.node[459].nic.mac1609_4 ReceivedBroadcasts 166439
scalar RSUExampleScenario.node[459].nic.mac1609_4 SentPackets 473
scalar RSUExampleScenario.node[459].nic.mac1609_4 SentAcknowledgements 0
scalar RSUExampleScenario.node[459].nic.mac1609_4 RetriesExceeded 0
scalar RSUExampleScenario.node[459].nic.mac1609_4 SNIRLostPackets 1272
scalar RSUExampleScenario.node[459].nic.mac1609_4 RXTXLostPackets 0
scalar RSUExampleScenario.node[459].nic.mac1609_4 TotalLostPackets 1272
scalar RSUExampleScenario.node[459].nic.mac1609_4 DroppedPacketsInMac 0
scalar RSUExampleScenario.node[459].nic.mac1609_4 TooLittleTime 0
scalar RSUExampleScenario.node[459].nic.mac1609_4 TimesIntoBackoff 487
scalar RSUExampleScenario.node[459].nic.mac1609_4 SlotsBackoff 735
scalar RSUExampleScenario.node[459].nic.mac1609_4 NumInternalContention 0
scalar RSUExampleScenario.node[459].nic.mac1609_4 totalBusyTime 17.41194925288
scalar RSUExampleScenario.node[459].nic.mac1609_4 retriesExceeded:count 0
attr source org_car2x_veins_modules_mac_sigRetriesExceeded
scalar RSUExampleScenario.node[459].nic.mac1609_4 sentAcks:count 0
attr source org_car2x_veins_modules_mac_sigSentAck
scalar RSUExampleScenario.node[459].nic.mac1609_4 sentPackets:count 473
attr source org_car2x_veins_modules_mac_sigSentPacket
scalar RSUExampleScenario.node[459].nic.mac1609_4 collisions:count 0
attr source org_car2x_veins_modules_mac_sigCollision
scalar RSUExampleScenario.node[459].nic.mac1609_4 channelBusy:timeavg 0.036734070153841
attr source org_car2x_veins_modules_mac_sigChannelBusy
scalar RSUExampleScenario.node[459].veinsmobility startTime 14
scalar RSUExampleScenario.node[459].veinsmobility totalTime 473
scalar RSUExampleScenario.node[459].veinsmobility stopTime 488
scalar RSUExampleScenario.node[459].veinsmobility minSpeed 0
scalar RSUExampleScenario.node[459].veinsmobility maxSpeed 13.873103632708
scalar RSUExampleScenario.node[459].veinsmobility totalDistance 667.46668997529
scalar RSUExampleScenario.node[459].veinsmobility totalCO2Emission 646.49784358391
scalar RSUExampleScenario.node[584].appl generatedWSMs 0
scalar RSUExampleScenario.node[584].appl receivedWSMs 0
scalar RSUExampleScenario.node[584].appl generatedBSMs 468
scalar RSUExampleScenario.node[584].appl receivedBSMs 161806
scalar RSUExampleScenario.node[584].appl generatedWSAs 0
scalar RSUExampleScenario.node[584].appl receivedWSAs 0
scalar RSUExampleScenario.node[584].nic.phy80211p busyTime 0.036238444444528
scalar RSUExampleScenario.node[584].nic.mac1609_4 ReceivedUnicastPackets 0
scalar RSUExampleScenario.node[584].nic.mac1609_4 ReceivedBroadcasts 161806
scalar RSUExampleScenario.node[584].nic.mac1609_4 SentPackets 467
scalar RSUExampleScenario.node[584].nic.mac1609_4 SentAcknowledgements 0
scalar RSUExampleScenario.node[584].nic.mac1609_4 RetriesExceeded 0
scalar RSUExampleScenario.node[584].nic.mac1609_4 SNIRLostPackets 1267
scalar RSUExampleScenario.node[584].nic.mac1609_4 RXTXLostPackets 2
scalar RSUExampleScenario.node[584].nic.mac1609_4 TotalLostPackets 1269
scalar RSUExampleScenario.node[584].nic.mac1609_4 DroppedPacketsInMac 0
scalar RSUExampleScenario.node[584].nic.mac1609_4 TooLittleTime 0
scalar RSUExampleScenario.node[584].nic.mac1609_4 TimesIntoBackoff 485
scalar RSUExampleScenario.node[584].nic.mac1609_4 SlotsBackoff 711
scalar RSUExampleScenario.node[584].nic.mac1609_4 NumInternalContention 0
scalar RSUExampleScenario.node[584].nic.mac1609_4 totalBusyTime 16.931355420685
scalar RSUExampleScenario.node[584].nic.mac1609_4 retriesExceeded:count 0
attr source org_car2x_veins_modules_mac_sigRetriesExceeded
scalar RSUExampleScenario.node[584].nic.mac1609_4 sentAcks:count 0
attr source org_car2x_veins_modules_mac_sigSentAck
scalar RSUExampleScenario.node[584].nic.mac1609_4 sentPackets:count 467
attr source org_car2x_veins_modules_mac_sigSentPacket
scalar RSUExampleScenario.node[584].nic.mac1609_4 collisions:count 0
attr source org_car2x_veins_modules_mac_sigCollision
scalar RSUExampleScenario.node[584].nic.mac1609_4 channelBusy:timeavg 0.036178109873342
attr source org_car2x_veins_modules_mac_sigChannelBusy
scalar RSUExampleScenario.node[584].veinsmobility startTime 23
scalar RSUExampleScenario.node[584].veinsmobility totalTime 467
scalar RSUExampleScenario.node[584].veinsmobility stopTime 491
scalar RSUExampleScenario.node[584].veinsmobility minSpeed 0
scalar RSUExampleScenario.node[584].veinsmobility maxSpeed 13.824164734641
scalar RSUExampleScenario.node[584].veinsmobility totalDistance 844.03649589774
scalar RSUExampleScenario.node[584].veinsmobility totalCO2Emission 690.82304134389
scalar RSUExampleScenario.manager roiArea 0
scalar RSUExampleScenario.rsu[0].appl generatedWSMs 0
scalar RSUExampleScenario.rsu[0].appl receivedWSMs 0
scalar RSUExampleScenario.rsu[0].appl generatedBSMs 0
scalar RSUExampleScenario.rsu[0].appl receivedBSMs 170023
scalar RSUExampleScenario.rsu[0].appl generatedWSAs 0
scalar RSUExampleScenario.rsu[0].appl receivedWSAs 0
scalar RSUExampleScenario.rsu[0].nic.phy80211p busyTime 0.0019797786666713
scalar RSUExampleScenario.rsu[0].nic.mac1609_4 ReceivedUnicastPackets 0
scalar RSUExampleScenario.rsu[0].nic.mac1609_4 ReceivedBroadcasts 170023
scalar RSUExampleScenario.rsu[0].nic.mac1609_4 SentPackets 0
scalar RSUExampleScenario.rsu[0].nic.mac1609_4 SentAcknowledgements 0
scalar RSUExampleScenario.rsu[0].nic.mac1609_4 RetriesExceeded 0
scalar RSUExampleScenario.rsu[0].nic.mac1609_4 SNIRLostPackets 1304
scalar RSUExampleScenario.rsu[0].nic.mac1609_4 RXTXLostPackets 0
scalar RSUExampleScenario.rsu[0].nic.mac1609_4 TotalLostPackets 1304
scalar RSUExampleScenario.rsu[0].nic.mac1609_4 DroppedPacketsInMac 0
scalar RSUExampleScenario.rsu[0].nic.mac1609_4 TooLittleTime 0
scalar RSUExampleScenario.rsu[0].nic.mac1609_4 TimesIntoBackoff 0
scalar RSUExampleScenario.rsu[0].nic.mac1609_4 SlotsBackoff 0
scalar RSUExampleScenario.rsu[0].nic.mac1609_4 NumInternalContention 0
scalar RSUExampleScenario.rsu[0].nic.mac1609_4 totalBusyTime 17.737525622105
scalar RSUExampleScenario.rsu[0].nic.mac1609_4 retriesExceeded:count 0
attr source org_car2x_veins_modules_mac_sigRetriesExceeded
scalar RSUExampleScenario.rsu[0].nic.mac1609_4 sentAcks:count 0
attr source org_car2x_veins_modules_mac_sigSentAck
scalar RSUExampleScenario.rsu[0].nic.mac1609_4 sentPackets:count 0
attr source org_car2x_veins_modules_mac_sigSentPacket
scalar RSUExampleScenario.rsu[0].nic.mac1609_4 collisions:count 0
attr source org_car2x_veins_modules_mac_sigCollision
scalar RSUExampleScenario.rsu[0].nic.mac1609_4 channelBusy:timeavg 0.0019708361802385
attr source org_car2x_veins_modules_mac_sigChannelBusy

