file 23958884 1675907212                                        
version 2
run General-0-20230208-22:19:55-7744
attr configname General
attr datetime 20230208-22:19:55
attr experiment General
attr inifile omnetpp.ini
attr iterationvars ""
attr iterationvarsf ""
attr measurement ""
attr network RSUExampleScenario
attr processid 7744
attr repetition 0
attr replication #0
attr resultdir results
attr runnumber 0
attr seedset 0
param *.playgroundSizeX 500m
param *.playgroundSizeY 500m
param *.playgroundSizeZ 50m
param *.annotations.draw true
param *.manager.updateInterval 1s
param *.manager.host "\"localhost\""
param *.manager.port 9999
param *.manager.autoShutdown true
param *.manager.launchConfig "xmldoc(\"manhattan.launchd.xml\")"
param *.rsu[0].mobility.x 250
param *.rsu[0].mobility.y 250
param *.rsu[0].mobility.z 3
param *.rsu[*].applType "\"LeaderApp\""
param *.rsu[*].appl.headerLength "80 bit"
param *.rsu[*].appl.windowTime 15.0
param *.rsu[*].appl.fileName "\"baseline_manhatan_dbscan_modificado_1_lider\""
param *.rsu[*].appl.strategy "\"none\""
param *.rsu[*].appl.sendBeacons true
param *.rsu[*].appl.dataOnSch false
param *.rsu[*].appl.beaconInterval 1s
param *.rsu[*].appl.beaconUserPriority 7
param *.rsu[*].appl.dataUserPriority 5
param *.connectionManager.sendDirect true
param *.connectionManager.maxInterfDist 2600m
param *.**.nic.mac1609_4.useServiceChannel false
param *.**.nic.mac1609_4.txPower 200mW
param *.**.nic.mac1609_4.bitrate 6Mbps
param *.**.nic.phy80211p.minPowerLevel -110dBm
param *.**.nic.phy80211p.useNoiseFloor true
param *.**.nic.phy80211p.noiseFloor -98dBm
param *.**.nic.phy80211p.decider "xmldoc(\"config.xml\")"
param *.**.nic.phy80211p.analogueModels "xmldoc(\"config.xml\")"
param *.**.nic.phy80211p.usePropagationDelay true
param *.node[*].applType "\"BeaconApp\""
param *.node[*].appl.headerLength "80 bit"
param *.node[*].appl.windowTime 5.0
param *.node[*].appl.sendBeacons true
param *.node[*].appl.dataOnSch false
param *.node[*].appl.beaconInterval 1s
param *.node[*].veinsmobility.x 0
param *.node[*].veinsmobility.y 0
param *.node[*].veinsmobility.z 0

vector 0 RSUExampleScenario.node[0].veinsmobility posx ETV
vector 1 RSUExampleScenario.node[0].veinsmobility posy ETV
vector 2 RSUExampleScenario.node[1].veinsmobility posx ETV
vector 3 RSUExampleScenario.node[1].veinsmobility posy ETV
vector 4 RSUExampleScenario.node[2].veinsmobility posx ETV
vector 5 RSUExampleScenario.node[2].veinsmobility posy ETV
vector 6 RSUExampleScenario.node[3].veinsmobility posx ETV
vector 7 RSUExampleScenario.node[3].veinsmobility posy ETV
vector 8 RSUExampleScenario.node[4].veinsmobility posx ETV
vector 9 RSUExampleScenario.node[4].veinsmobility posy ETV
vector 10 RSUExampleScenario.node[5].veinsmobility posx ETV
vector 11 RSUExampleScenario.node[5].veinsmobility posy ETV
vector 12 RSUExampleScenario.node[6].veinsmobility posx ETV
vector 13 RSUExampleScenario.node[6].veinsmobility posy ETV
vector 14 RSUExampleScenario.node[7].veinsmobility posx ETV
vector 15 RSUExampleScenario.node[7].veinsmobility posy ETV
vector 16 RSUExampleScenario.node[8].veinsmobility posx ETV
vector 17 RSUExampleScenario.node[8].veinsmobility posy ETV
vector 18 RSUExampleScenario.node[9].veinsmobility posx ETV
vector 19 RSUExampleScenario.node[9].veinsmobility posy ETV
vector 20 RSUExampleScenario.node[10].veinsmobility posx ETV
vector 21 RSUExampleScenario.node[10].veinsmobility posy ETV
vector 22 RSUExampleScenario.node[11].veinsmobility posx ETV
vector 23 RSUExampleScenario.node[11].veinsmobility posy ETV
vector 24 RSUExampleScenario.node[12].veinsmobility posx ETV
vector 25 RSUExampleScenario.node[12].veinsmobility posy ETV
vector 26 RSUExampleScenario.node[13].veinsmobility posx ETV
vector 27 RSUExampleScenario.node[13].veinsmobility posy ETV
vector 28 RSUExampleScenario.node[14].veinsmobility posx ETV
vector 29 RSUExampleScenario.node[14].veinsmobility posy ETV
vector 30 RSUExampleScenario.node[15].veinsmobility posx ETV
vector 31 RSUExampleScenario.node[15].veinsmobility posy ETV
vector 32 RSUExampleScenario.node[16].veinsmobility posx ETV
vector 33 RSUExampleScenario.node[16].veinsmobility posy ETV
vector 34 RSUExampleScenario.node[17].veinsmobility posx ETV
vector 35 RSUExampleScenario.node[17].veinsmobility posy ETV
vector 36 RSUExampleScenario.node[18].veinsmobility posx ETV
vector 37 RSUExampleScenario.node[18].veinsmobility posy ETV
vector 38 RSUExampleScenario.node[19].veinsmobility posx ETV
vector 39 RSUExampleScenario.node[19].veinsmobility posy ETV
vector 40 RSUExampleScenario.node[20].veinsmobility posx ETV
vector 41 RSUExampleScenario.node[20].veinsmobility posy ETV
vector 42 RSUExampleScenario.node[21].veinsmobility posx ETV
vector 43 RSUExampleScenario.node[21].veinsmobility posy ETV
vector 44 RSUExampleScenario.node[22].veinsmobility posx ETV
vector 45 RSUExampleScenario.node[22].veinsmobility posy ETV
vector 46 RSUExampleScenario.node[23].veinsmobility posx ETV
vector 47 RSUExampleScenario.node[23].veinsmobility posy ETV
vector 48 RSUExampleScenario.node[24].veinsmobility posx ETV
vector 49 RSUExampleScenario.node[24].veinsmobility posy ETV
vector 50 RSUExampleScenario.node[25].veinsmobility posx ETV
vector 51 RSUExampleScenario.node[25].veinsmobility posy ETV
vector 52 RSUExampleScenario.node[26].veinsmobility posx ETV
vector 53 RSUExampleScenario.node[26].veinsmobility posy ETV
vector 54 RSUExampleScenario.node[27].veinsmobility posx ETV
vector 55 RSUExampleScenario.node[27].veinsmobility posy ETV
vector 56 RSUExampleScenario.node[28].veinsmobility posx ETV
vector 57 RSUExampleScenario.node[28].veinsmobility posy ETV
vector 58 RSUExampleScenario.node[29].veinsmobility posx ETV
vector 59 RSUExampleScenario.node[29].veinsmobility posy ETV
vector 60 RSUExampleScenario.node[30].veinsmobility posx ETV
vector 61 RSUExampleScenario.node[30].veinsmobility posy ETV
vector 62 RSUExampleScenario.node[31].veinsmobility posx ETV
vector 63 RSUExampleScenario.node[31].veinsmobility posy ETV
vector 64 RSUExampleScenario.node[32].veinsmobility posx ETV
vector 65 RSUExampleScenario.node[32].veinsmobility posy ETV
vector 66 RSUExampleScenario.node[33].veinsmobility posx ETV
vector 67 RSUExampleScenario.node[33].veinsmobility posy ETV
vector 68 RSUExampleScenario.node[34].veinsmobility posx ETV
vector 69 RSUExampleScenario.node[34].veinsmobility posy ETV
vector 70 RSUExampleScenario.node[35].veinsmobility posx ETV
vector 71 RSUExampleScenario.node[35].veinsmobility posy ETV
vector 72 RSUExampleScenario.node[36].veinsmobility posx ETV
vector 73 RSUExampleScenario.node[36].veinsmobility posy ETV
vector 74 RSUExampleScenario.node[37].veinsmobility posx ETV
vector 75 RSUExampleScenario.node[37].veinsmobility posy ETV
vector 76 RSUExampleScenario.node[38].veinsmobility posx ETV
vector 77 RSUExampleScenario.node[38].veinsmobility posy ETV
vector 78 RSUExampleScenario.node[39].veinsmobility posx ETV
vector 79 RSUExampleScenario.node[39].veinsmobility posy ETV
vector 80 RSUExampleScenario.node[40].veinsmobility posx ETV
vector 81 RSUExampleScenario.node[40].veinsmobility posy ETV
vector 82 RSUExampleScenario.node[41].veinsmobility posx ETV
vector 83 RSUExampleScenario.node[41].veinsmobility posy ETV
vector 84 RSUExampleScenario.node[42].veinsmobility posx ETV
vector 85 RSUExampleScenario.node[42].veinsmobility posy ETV
vector 86 RSUExampleScenario.node[43].veinsmobility posx ETV
vector 87 RSUExampleScenario.node[43].veinsmobility posy ETV
vector 88 RSUExampleScenario.node[44].veinsmobility posx ETV
vector 89 RSUExampleScenario.node[44].veinsmobility posy ETV
vector 90 RSUExampleScenario.node[45].veinsmobility posx ETV
vector 91 RSUExampleScenario.node[45].veinsmobility posy ETV
vector 92 RSUExampleScenario.node[46].veinsmobility posx ETV
vector 93 RSUExampleScenario.node[46].veinsmobility posy ETV
vector 94 RSUExampleScenario.node[47].veinsmobility posx ETV
vector 95 RSUExampleScenario.node[47].veinsmobility posy ETV
vector 96 RSUExampleScenario.node[48].veinsmobility posx ETV
vector 97 RSUExampleScenario.node[48].veinsmobility posy ETV
vector 98 RSUExampleScenario.node[49].veinsmobility posx ETV
vector 99 RSUExampleScenario.node[49].veinsmobility posy ETV
vector 100 RSUExampleScenario.node[50].veinsmobility posx ETV
vector 101 RSUExampleScenario.node[50].veinsmobility posy ETV
vector 102 RSUExampleScenario.node[51].veinsmobility posx ETV
vector 103 RSUExampleScenario.node[51].veinsmobility posy ETV
vector 104 RSUExampleScenario.node[52].veinsmobility posx ETV
vector 105 RSUExampleScenario.node[52].veinsmobility posy ETV
vector 106 RSUExampleScenario.node[53].veinsmobility posx ETV
vector 107 RSUExampleScenario.node[53].veinsmobility posy ETV
vector 108 RSUExampleScenario.node[54].veinsmobility posx ETV
vector 109 RSUExampleScenario.node[54].veinsmobility posy ETV
vector 110 RSUExampleScenario.node[55].veinsmobility posx ETV
vector 111 RSUExampleScenario.node[55].veinsmobility posy ETV
vector 112 RSUExampleScenario.node[56].veinsmobility posx ETV
vector 113 RSUExampleScenario.node[56].veinsmobility posy ETV
vector 114 RSUExampleScenario.node[57].veinsmobility posx ETV
vector 115 RSUExampleScenario.node[57].veinsmobility posy ETV
vector 116 RSUExampleScenario.node[58].veinsmobility posx ETV
vector 117 RSUExampleScenario.node[58].veinsmobility posy ETV
vector 118 RSUExampleScenario.node[59].veinsmobility posx ETV
vector 119 RSUExampleScenario.node[59].veinsmobility posy ETV
vector 120 RSUExampleScenario.node[60].veinsmobility posx ETV
vector 121 RSUExampleScenario.node[60].veinsmobility posy ETV
vector 122 RSUExampleScenario.node[61].veinsmobility posx ETV
vector 123 RSUExampleScenario.node[61].veinsmobility posy ETV
vector 124 RSUExampleScenario.node[62].veinsmobility posx ETV
vector 125 RSUExampleScenario.node[62].veinsmobility posy ETV
vector 126 RSUExampleScenario.node[63].veinsmobility posx ETV
vector 127 RSUExampleScenario.node[63].veinsmobility posy ETV
vector 128 RSUExampleScenario.node[64].veinsmobility posx ETV
vector 129 RSUExampleScenario.node[64].veinsmobility posy ETV
vector 130 RSUExampleScenario.node[65].veinsmobility posx ETV
vector 131 RSUExampleScenario.node[65].veinsmobility posy ETV
vector 132 RSUExampleScenario.node[66].veinsmobility posx ETV
vector 133 RSUExampleScenario.node[66].veinsmobility posy ETV
vector 134 RSUExampleScenario.node[67].veinsmobility posx ETV
vector 135 RSUExampleScenario.node[67].veinsmobility posy ETV
vector 136 RSUExampleScenario.node[68].veinsmobility posx ETV
vector 137 RSUExampleScenario.node[68].veinsmobility posy ETV
vector 138 RSUExampleScenario.node[69].veinsmobility posx ETV
vector 139 RSUExampleScenario.node[69].veinsmobility posy ETV
vector 140 RSUExampleScenario.node[70].veinsmobility posx ETV
vector 141 RSUExampleScenario.node[70].veinsmobility posy ETV
vector 142 RSUExampleScenario.node[71].veinsmobility posx ETV
vector 143 RSUExampleScenario.node[71].veinsmobility posy ETV
vector 144 RSUExampleScenario.node[72].veinsmobility posx ETV
vector 145 RSUExampleScenario.node[72].veinsmobility posy ETV
vector 146 RSUExampleScenario.node[73].veinsmobility posx ETV
vector 147 RSUExampleScenario.node[73].veinsmobility posy ETV
vector 148 RSUExampleScenario.node[74].veinsmobility posx ETV
vector 149 RSUExampleScenario.node[74].veinsmobility posy ETV
vector 150 RSUExampleScenario.node[75].veinsmobility posx ETV
vector 151 RSUExampleScenario.node[75].veinsmobility posy ETV
vector 152 RSUExampleScenario.node[0].veinsmobility speed ETV
vector 153 RSUExampleScenario.node[1].veinsmobility speed ETV
vector 154 RSUExampleScenario.node[76].veinsmobility posx ETV
vector 155 RSUExampleScenario.node[76].veinsmobility posy ETV
vector 156 RSUExampleScenario.node[77].veinsmobility posx ETV
vector 157 RSUExampleScenario.node[77].veinsmobility posy ETV
vector 158 RSUExampleScenario.node[78].veinsmobility posx ETV
vector 159 RSUExampleScenario.node[78].veinsmobility posy ETV
vector 160 RSUExampleScenario.node[79].veinsmobility posx ETV
vector 161 RSUExampleScenario.node[79].veinsmobility posy ETV
vector 162 RSUExampleScenario.node[80].veinsmobility posx ETV
vector 163 RSUExampleScenario.node[80].veinsmobility posy ETV
vector 164 RSUExampleScenario.node[81].veinsmobility posx ETV
vector 165 RSUExampleScenario.node[81].veinsmobility posy ETV
vector 166 RSUExampleScenario.node[82].veinsmobility posx ETV
vector 167 RSUExampleScenario.node[82].veinsmobility posy ETV
vector 168 RSUExampleScenario.node[83].veinsmobility posx ETV
vector 169 RSUExampleScenario.node[83].veinsmobility posy ETV
vector 170 RSUExampleScenario.node[84].veinsmobility posx ETV
vector 171 RSUExampleScenario.node[84].veinsmobility posy ETV
vector 172 RSUExampleScenario.node[85].veinsmobility posx ETV
vector 173 RSUExampleScenario.node[85].veinsmobility posy ETV
vector 174 RSUExampleScenario.node[86].veinsmobility posx ETV
vector 175 RSUExampleScenario.node[86].veinsmobility posy ETV
vector 176 RSUExampleScenario.node[87].veinsmobility posx ETV
vector 177 RSUExampleScenario.node[87].veinsmobility posy ETV
vector 178 RSUExampleScenario.node[88].veinsmobility posx ETV
vector 179 RSUExampleScenario.node[88].veinsmobility posy ETV
vector 180 RSUExampleScenario.node[89].veinsmobility posx ETV
vector 181 RSUExampleScenario.node[89].veinsmobility posy ETV
vector 182 RSUExampleScenario.node[90].veinsmobility posx ETV
vector 183 RSUExampleScenario.node[90].veinsmobility posy ETV
vector 184 RSUExampleScenario.node[91].veinsmobility posx ETV
vector 185 RSUExampleScenario.node[91].veinsmobility posy ETV
vector 186 RSUExampleScenario.node[92].veinsmobility posx ETV
vector 187 RSUExampleScenario.node[92].veinsmobility posy ETV
vector 188 RSUExampleScenario.node[93].veinsmobility posx ETV
vector 189 RSUExampleScenario.node[93].veinsmobility posy ETV
vector 190 RSUExampleScenario.node[94].veinsmobility posx ETV
vector 191 RSUExampleScenario.node[94].veinsmobility posy ETV
vector 192 RSUExampleScenario.node[95].veinsmobility posx ETV
vector 193 RSUExampleScenario.node[95].veinsmobility posy ETV
vector 194 RSUExampleScenario.node[96].veinsmobility posx ETV
vector 195 RSUExampleScenario.node[96].veinsmobility posy ETV
vector 196 RSUExampleScenario.node[97].veinsmobility posx ETV
vector 197 RSUExampleScenario.node[97].veinsmobility posy ETV
vector 198 RSUExampleScenario.node[98].veinsmobility posx ETV
vector 199 RSUExampleScenario.node[98].veinsmobility posy ETV
vector 200 RSUExampleScenario.node[99].veinsmobility posx ETV
vector 201 RSUExampleScenario.node[99].veinsmobility posy ETV
vector 202 RSUExampleScenario.node[100].veinsmobility posx ETV
vector 203 RSUExampleScenario.node[100].veinsmobility posy ETV
vector 204 RSUExampleScenario.node[101].veinsmobility posx ETV
vector 205 RSUExampleScenario.node[101].veinsmobility posy ETV
vector 206 RSUExampleScenario.node[102].veinsmobility posx ETV
vector 207 RSUExampleScenario.node[102].veinsmobility posy ETV
vector 208 RSUExampleScenario.node[103].veinsmobility posx ETV
vector 209 RSUExampleScenario.node[103].veinsmobility posy ETV
vector 210 RSUExampleScenario.node[104].veinsmobility posx ETV
vector 211 RSUExampleScenario.node[104].veinsmobility posy ETV
vector 212 RSUExampleScenario.node[105].veinsmobility posx ETV
vector 213 RSUExampleScenario.node[105].veinsmobility posy ETV
vector 214 RSUExampleScenario.node[106].veinsmobility posx ETV
vector 215 RSUExampleScenario.node[106].veinsmobility posy ETV
vector 216 RSUExampleScenario.node[107].veinsmobility posx ETV
vector 217 RSUExampleScenario.node[107].veinsmobility posy ETV
vector 218 RSUExampleScenario.node[108].veinsmobility posx ETV
vector 219 RSUExampleScenario.node[108].veinsmobility posy ETV
vector 220 RSUExampleScenario.node[109].veinsmobility posx ETV
vector 221 RSUExampleScenario.node[109].veinsmobility posy ETV
vector 222 RSUExampleScenario.node[110].veinsmobility posx ETV
vector 223 RSUExampleScenario.node[110].veinsmobility posy ETV
vector 224 RSUExampleScenario.node[111].veinsmobility posx ETV
vector 225 RSUExampleScenario.node[111].veinsmobility posy ETV
vector 226 RSUExampleScenario.node[112].veinsmobility posx ETV
vector 227 RSUExampleScenario.node[112].veinsmobility posy ETV
vector 228 RSUExampleScenario.node[113].veinsmobility posx ETV
vector 229 RSUExampleScenario.node[113].veinsmobility posy ETV
vector 230 RSUExampleScenario.node[114].veinsmobility posx ETV
vector 231 RSUExampleScenario.node[114].veinsmobility posy ETV
vector 232 RSUExampleScenario.node[115].veinsmobility posx ETV
vector 233 RSUExampleScenario.node[115].veinsmobility posy ETV
vector 234 RSUExampleScenario.node[116].veinsmobility posx ETV
vector 235 RSUExampleScenario.node[116].veinsmobility posy ETV
vector 236 RSUExampleScenario.node[0].veinsmobility acceleration ETV
vector 237 RSUExampleScenario.node[0].veinsmobility co2emission ETV
vector 238 RSUExampleScenario.node[1].veinsmobility acceleration ETV
vector 239 RSUExampleScenario.node[1].veinsmobility co2emission ETV
vector 240 RSUExampleScenario.node[2].veinsmobility speed ETV
vector 241 RSUExampleScenario.node[3].veinsmobility speed ETV
vector 242 RSUExampleScenario.node[4].veinsmobility speed ETV
vector 243 RSUExampleScenario.node[5].veinsmobility speed ETV
vector 244 RSUExampleScenario.node[6].veinsmobility speed ETV
vector 245 RSUExampleScenario.node[7].veinsmobility speed ETV
vector 246 RSUExampleScenario.node[8].veinsmobility speed ETV
vector 247 RSUExampleScenario.node[9].veinsmobility speed ETV
vector 248 RSUExampleScenario.node[10].veinsmobility speed ETV
vector 249 RSUExampleScenario.node[11].veinsmobility speed ETV
vector 250 RSUExampleScenario.node[12].veinsmobility speed ETV
vector 251 RSUExampleScenario.node[13].veinsmobility speed ETV
vector 252 RSUExampleScenario.node[14].veinsmobility speed ETV
vector 253 RSUExampleScenario.node[15].veinsmobility speed ETV
vector 254 RSUExampleScenario.node[16].veinsmobility speed ETV
vector 255 RSUExampleScenario.node[17].veinsmobility speed ETV
vector 256 RSUExampleScenario.node[18].veinsmobility speed ETV
vector 257 RSUExampleScenario.node[19].veinsmobility speed ETV
vector 258 RSUExampleScenario.node[20].veinsmobility speed ETV
vector 259 RSUExampleScenario.node[21].veinsmobility speed ETV
vector 260 RSUExampleScenario.node[22].veinsmobility speed ETV
vector 261 RSUExampleScenario.node[23].veinsmobility speed ETV
vector 262 RSUExampleScenario.node[24].veinsmobility speed ETV
vector 263 RSUExampleScenario.node[25].veinsmobility speed ETV
vector 264 RSUExampleScenario.node[26].veinsmobility speed ETV
vector 265 RSUExampleScenario.node[27].veinsmobility speed ETV
vector 266 RSUExampleScenario.node[28].veinsmobility speed ETV
vector 267 RSUExampleScenario.node[29].veinsmobility speed ETV
vector 268 RSUExampleScenario.node[30].veinsmobility speed ETV
vector 269 RSUExampleScenario.node[31].veinsmobility speed ETV
vector 270 RSUExampleScenario.node[32].veinsmobility speed ETV
vector 271 RSUExampleScenario.node[33].veinsmobility speed ETV
vector 272 RSUExampleScenario.node[34].veinsmobility speed ETV
vector 273 RSUExampleScenario.node[35].veinsmobility speed ETV
vector 274 RSUExampleScenario.node[36].veinsmobility speed ETV
vector 275 RSUExampleScenario.node[37].veinsmobility speed ETV
vector 276 RSUExampleScenario.node[38].veinsmobility speed ETV
vector 277 RSUExampleScenario.node[39].veinsmobility speed ETV
vector 278 RSUExampleScenario.node[40].veinsmobility speed ETV
vector 279 RSUExampleScenario.node[41].veinsmobility speed ETV
vector 280 RSUExampleScenario.node[42].veinsmobility speed ETV
vector 281 RSUExampleScenario.node[43].veinsmobility speed ETV
vector 282 RSUExampleScenario.node[44].veinsmobility speed ETV
vector 283 RSUExampleScenario.node[45].veinsmobility speed ETV
vector 284 RSUExampleScenario.node[46].veinsmobility speed ETV
vector 285 RSUExampleScenario.node[47].veinsmobility speed ETV
vector 286 RSUExampleScenario.node[48].veinsmobility speed ETV
vector 287 RSUExampleScenario.node[49].veinsmobility speed ETV
vector 288 RSUExampleScenario.node[50].veinsmobility speed ETV
vector 289 RSUExampleScenario.node[51].veinsmobility speed ETV
vector 290 RSUExampleScenario.node[52].veinsmobility speed ETV
vector 291 RSUExampleScenario.node[53].veinsmobility speed ETV
vector 292 RSUExampleScenario.node[54].veinsmobility speed ETV
vector 293 RSUExampleScenario.node[55].veinsmobility speed ETV
vector 294 RSUExampleScenario.node[56].veinsmobility speed ETV
vector 295 RSUExampleScenario.node[57].veinsmobility speed ETV
vector 296 RSUExampleScenario.node[58].veinsmobility speed ETV
vector 297 RSUExampleScenario.node[59].veinsmobility speed ETV
vector 298 RSUExampleScenario.node[60].veinsmobility speed ETV
vector 299 RSUExampleScenario.node[61].veinsmobility speed ETV
vector 300 RSUExampleScenario.node[62].veinsmobility speed ETV
vector 301 RSUExampleScenario.node[63].veinsmobility speed ETV
vector 302 RSUExampleScenario.node[64].veinsmobility speed ETV
vector 303 RSUExampleScenario.node[65].veinsmobility speed ETV
vector 304 RSUExampleScenario.node[66].veinsmobility speed ETV
vector 305 RSUExampleScenario.node[67].veinsmobility speed ETV
vector 306 RSUExampleScenario.node[68].veinsmobility speed ETV
vector 307 RSUExampleScenario.node[69].veinsmobility speed ETV
vector 308 RSUExampleScenario.node[70].veinsmobility speed ETV
vector 309 RSUExampleScenario.node[71].veinsmobility speed ETV
vector 310 RSUExampleScenario.node[72].veinsmobility speed ETV
vector 311 RSUExampleScenario.node[73].veinsmobility speed ETV
vector 312 RSUExampleScenario.node[74].veinsmobility speed ETV
vector 313 RSUExampleScenario.node[75].veinsmobility speed ETV
vector 314 RSUExampleScenario.node[117].veinsmobility posx ETV
vector 315 RSUExampleScenario.node[117].veinsmobility posy ETV
vector 316 RSUExampleScenario.node[118].veinsmobility posx ETV
vector 317 RSUExampleScenario.node[118].veinsmobility posy ETV
vector 318 RSUExampleScenario.node[119].veinsmobility posx ETV
vector 319 RSUExampleScenario.node[119].veinsmobility posy ETV
vector 320 RSUExampleScenario.node[120].veinsmobility posx ETV
vector 321 RSUExampleScenario.node[120].veinsmobility posy ETV
vector 322 RSUExampleScenario.node[121].veinsmobility posx ETV
vector 323 RSUExampleScenario.node[121].veinsmobility posy ETV
vector 324 RSUExampleScenario.node[122].veinsmobility posx ETV
vector 325 RSUExampleScenario.node[122].veinsmobility posy ETV
vector 326 RSUExampleScenario.node[123].veinsmobility posx ETV
vector 327 RSUExampleScenario.node[123].veinsmobility posy ETV
vector 328 RSUExampleScenario.node[124].veinsmobility posx ETV
vector 329 RSUExampleScenario.node[124].veinsmobility posy ETV
vector 330 RSUExampleScenario.node[125].veinsmobility posx ETV
vector 331 RSUExampleScenario.node[125].veinsmobility posy ETV
vector 332 RSUExampleScenario.node[126].veinsmobility posx ETV
vector 333 RSUExampleScenario.node[126].veinsmobility posy ETV
vector 334 RSUExampleScenario.node[127].veinsmobility posx ETV
vector 335 RSUExampleScenario.node[127].veinsmobility posy ETV
vector 336 RSUExampleScenario.node[128].veinsmobility posx ETV
vector 337 RSUExampleScenario.node[128].veinsmobility posy ETV
vector 338 RSUExampleScenario.node[129].veinsmobility posx ETV
vector 339 RSUExampleScenario.node[129].veinsmobility posy ETV
vector 340 RSUExampleScenario.node[130].veinsmobility posx ETV
vector 341 RSUExampleScenario.node[130].veinsmobility posy ETV
vector 342 RSUExampleScenario.node[131].veinsmobility posx ETV
vector 343 RSUExampleScenario.node[131].veinsmobility posy ETV
vector 344 RSUExampleScenario.node[132].veinsmobility posx ETV
vector 345 RSUExampleScenario.node[132].veinsmobility posy ETV
vector 346 RSUExampleScenario.node[133].veinsmobility posx ETV
vector 347 RSUExampleScenario.node[133].veinsmobility posy ETV
vector 348 RSUExampleScenario.node[134].veinsmobility posx ETV
vector 349 RSUExampleScenario.node[134].veinsmobility posy ETV
vector 350 RSUExampleScenario.node[135].veinsmobility posx ETV
vector 351 RSUExampleScenario.node[135].veinsmobility posy ETV
vector 352 RSUExampleScenario.node[136].veinsmobility posx ETV
vector 353 RSUExampleScenario.node[136].veinsmobility posy ETV
vector 354 RSUExampleScenario.node[137].veinsmobility posx ETV
vector 355 RSUExampleScenario.node[137].veinsmobility posy ETV
vector 356 RSUExampleScenario.node[138].veinsmobility posx ETV
vector 357 RSUExampleScenario.node[138].veinsmobility posy ETV
vector 358 RSUExampleScenario.node[139].veinsmobility posx ETV
vector 359 RSUExampleScenario.node[139].veinsmobility posy ETV
vector 360 RSUExampleScenario.node[140].veinsmobility posx ETV
vector 361 RSUExampleScenario.node[140].veinsmobility posy ETV
vector 362 RSUExampleScenario.node[141].veinsmobility posx ETV
vector 363 RSUExampleScenario.node[141].veinsmobility posy ETV
vector 364 RSUExampleScenario.node[142].veinsmobility posx ETV
vector 365 RSUExampleScenario.node[142].veinsmobility posy ETV
vector 366 RSUExampleScenario.node[143].veinsmobility posx ETV
vector 367 RSUExampleScenario.node[143].veinsmobility posy ETV
vector 368 RSUExampleScenario.node[144].veinsmobility posx ETV
vector 369 RSUExampleScenario.node[144].veinsmobility posy ETV
vector 370 RSUExampleScenario.node[145].veinsmobility posx ETV
vector 371 RSUExampleScenario.node[145].veinsmobility posy ETV
vector 372 RSUExampleScenario.node[146].veinsmobility posx ETV
vector 373 RSUExampleScenario.node[146].veinsmobility posy ETV
vector 374 RSUExampleScenario.node[147].veinsmobility posx ETV
vector 375 RSUExampleScenario.node[147].veinsmobility posy ETV
vector 376 RSUExampleScenario.node[148].veinsmobility posx ETV
vector 377 RSUExampleScenario.node[148].veinsmobility posy ETV
vector 378 RSUExampleScenario.node[149].veinsmobility posx ETV
vector 379 RSUExampleScenario.node[149].veinsmobility posy ETV
vector 380 RSUExampleScenario.node[150].veinsmobility posx ETV
vector 381 RSUExampleScenario.node[150].veinsmobility posy ETV
vector 382 RSUExampleScenario.node[151].veinsmobility posx ETV
vector 383 RSUExampleScenario.node[151].veinsmobility posy ETV
vector 384 RSUExampleScenario.node[2].veinsmobility acceleration ETV
vector 385 RSUExampleScenario.node[2].veinsmobility co2emission ETV
vector 386 RSUExampleScenario.node[3].veinsmobility acceleration ETV
vector 387 RSUExampleScenario.node[3].veinsmobility co2emission ETV
vector 388 RSUExampleScenario.node[4].veinsmobility acceleration ETV
vector 389 RSUExampleScenario.node[4].veinsmobility co2emission ETV
vector 390 RSUExampleScenario.node[5].veinsmobility acceleration ETV
vector 391 RSUExampleScenario.node[5].veinsmobility co2emission ETV
vector 392 RSUExampleScenario.node[6].veinsmobility acceleration ETV
vector 393 RSUExampleScenario.node[6].veinsmobility co2emission ETV
vector 394 RSUExampleScenario.node[7].veinsmobility acceleration ETV
vector 395 RSUExampleScenario.node[7].veinsmobility co2emission ETV
vector 396 RSUExampleScenario.node[8].veinsmobility acceleration ETV
vector 397 RSUExampleScenario.node[8].veinsmobility co2emission ETV
vector 398 RSUExampleScenario.node[9].veinsmobility acceleration ETV
vector 399 RSUExampleScenario.node[9].veinsmobility co2emission ETV
vector 400 RSUExampleScenario.node[10].veinsmobility acceleration ETV
vector 401 RSUExampleScenario.node[10].veinsmobility co2emission ETV
vector 402 RSUExampleScenario.node[11].veinsmobility acceleration ETV
vector 403 RSUExampleScenario.node[11].veinsmobility co2emission ETV
vector 404 RSUExampleScenario.node[12].veinsmobility acceleration ETV
vector 405 RSUExampleScenario.node[12].veinsmobility co2emission ETV
vector 406 RSUExampleScenario.node[13].veinsmobility acceleration ETV
vector 407 RSUExampleScenario.node[13].veinsmobility co2emission ETV
vector 408 RSUExampleScenario.node[14].veinsmobility acceleration ETV
vector 409 RSUExampleScenario.node[14].veinsmobility co2emission ETV
vector 410 RSUExampleScenario.node[15].veinsmobility acceleration ETV
vector 411 RSUExampleScenario.node[15].veinsmobility co2emission ETV
vector 412 RSUExampleScenario.node[16].veinsmobility acceleration ETV
vector 413 RSUExampleScenario.node[16].veinsmobility co2emission ETV
vector 414 RSUExampleScenario.node[17].veinsmobility acceleration ETV
vector 415 RSUExampleScenario.node[17].veinsmobility co2emission ETV
vector 416 RSUExampleScenario.node[18].veinsmobility acceleration ETV
vector 417 RSUExampleScenario.node[18].veinsmobility co2emission ETV
vector 418 RSUExampleScenario.node[19].veinsmobility acceleration ETV
vector 419 RSUExampleScenario.node[19].veinsmobility co2emission ETV
vector 420 RSUExampleScenario.node[20].veinsmobility acceleration ETV
vector 421 RSUExampleScenario.node[20].veinsmobility co2emission ETV
vector 422 RSUExampleScenario.node[21].veinsmobility acceleration ETV
vector 423 RSUExampleScenario.node[21].veinsmobility co2emission ETV
vector 424 RSUExampleScenario.node[22].veinsmobility acceleration ETV
vector 425 RSUExampleScenario.node[22].veinsmobility co2emission ETV
vector 426 RSUExampleScenario.node[23].veinsmobility acceleration ETV
vector 427 RSUExampleScenario.node[23].veinsmobility co2emission ETV
vector 428 RSUExampleScenario.node[24].veinsmobility acceleration ETV
vector 429 RSUExampleScenario.node[24].veinsmobility co2emission ETV
vector 430 RSUExampleScenario.node[25].veinsmobility acceleration ETV
vector 431 RSUExampleScenario.node[25].veinsmobility co2emission ETV
vector 432 RSUExampleScenario.node[26].veinsmobility acceleration ETV
vector 433 RSUExampleScenario.node[26].veinsmobility co2emission ETV
vector 434 RSUExampleScenario.node[27].veinsmobility acceleration ETV
vector 435 RSUExampleScenario.node[27].veinsmobility co2emission ETV
vector 436 RSUExampleScenario.node[28].veinsmobility acceleration ETV
vector 437 RSUExampleScenario.node[28].veinsmobility co2emission ETV
vector 438 RSUExampleScenario.node[29].veinsmobility acceleration ETV
vector 439 RSUExampleScenario.node[29].veinsmobility co2emission ETV
vector 440 RSUExampleScenario.node[30].veinsmobility acceleration ETV
vector 441 RSUExampleScenario.node[30].veinsmobility co2emission ETV
vector 442 RSUExampleScenario.node[31].veinsmobility acceleration ETV
vector 443 RSUExampleScenario.node[31].veinsmobility co2emission ETV
vector 444 RSUExampleScenario.node[32].veinsmobility acceleration ETV
vector 445 RSUExampleScenario.node[32].veinsmobility co2emission ETV
vector 446 RSUExampleScenario.node[33].veinsmobility acceleration ETV
vector 447 RSUExampleScenario.node[33].veinsmobility co2emission ETV
vector 448 RSUExampleScenario.node[34].veinsmobility acceleration ETV
vector 449 RSUExampleScenario.node[34].veinsmobility co2emission ETV
vector 450 RSUExampleScenario.node[35].veinsmobility acceleration ETV
vector 451 RSUExampleScenario.node[35].veinsmobility co2emission ETV
vector 452 RSUExampleScenario.node[36].veinsmobility acceleration ETV
vector 453 RSUExampleScenario.node[36].veinsmobility co2emission ETV
vector 454 RSUExampleScenario.node[37].veinsmobility acceleration ETV
vector 455 RSUExampleScenario.node[37].veinsmobility co2emission ETV
vector 456 RSUExampleScenario.node[38].veinsmobility acceleration ETV
vector 457 RSUExampleScenario.node[38].veinsmobility co2emission ETV
vector 458 RSUExampleScenario.node[39].veinsmobility acceleration ETV
vector 459 RSUExampleScenario.node[39].veinsmobility co2emission ETV
vector 460 RSUExampleScenario.node[40].veinsmobility acceleration ETV
vector 461 RSUExampleScenario.node[40].veinsmobility co2emission ETV
vector 462 RSUExampleScenario.node[41].veinsmobility acceleration ETV
vector 463 RSUExampleScenario.node[41].veinsmobility co2emission ETV
vector 464 RSUExampleScenario.node[42].veinsmobility acceleration ETV
vector 465 RSUExampleScenario.node[42].veinsmobility co2emission ETV
vector 466 RSUExampleScenario.node[43].veinsmobility acceleration ETV
vector 467 RSUExampleScenario.node[43].veinsmobility co2emission ETV
vector 468 RSUExampleScenario.node[44].veinsmobility acceleration ETV
vector 469 RSUExampleScenario.node[44].veinsmobility co2emission ETV
vector 470 RSUExampleScenario.node[45].veinsmobility acceleration ETV
vector 471 RSUExampleScenario.node[45].veinsmobility co2emission ETV
vector 472 RSUExampleScenario.node[46].veinsmobility acceleration ETV
vector 473 RSUExampleScenario.node[46].veinsmobility co2emission ETV
vector 474 RSUExampleScenario.node[47].veinsmobility acceleration ETV
vector 475 RSUExampleScenario.node[47].veinsmobility co2emission ETV
vector 476 RSUExampleScenario.node[48].veinsmobility acceleration ETV
vector 477 RSUExampleScenario.node[48].veinsmobility co2emission ETV
vector 478 RSUExampleScenario.node[49].veinsmobility acceleration ETV
vector 479 RSUExampleScenario.node[49].veinsmobility co2emission ETV
vector 480 RSUExampleScenario.node[50].veinsmobility acceleration ETV
vector 481 RSUExampleScenario.node[50].veinsmobility co2emission ETV
vector 482 RSUExampleScenario.node[51].veinsmobility acceleration ETV
vector 483 RSUExampleScenario.node[51].veinsmobility co2emission ETV
vector 484 RSUExampleScenario.node[52].veinsmobility acceleration ETV
vector 485 RSUExampleScenario.node[52].veinsmobility co2emission ETV
vector 486 RSUExampleScenario.node[53].veinsmobility acceleration ETV
vector 487 RSUExampleScenario.node[53].veinsmobility co2emission ETV
vector 488 RSUExampleScenario.node[54].veinsmobility acceleration ETV
vector 489 RSUExampleScenario.node[54].veinsmobility co2emission ETV
vector 490 RSUExampleScenario.node[55].veinsmobility acceleration ETV
vector 491 RSUExampleScenario.node[55].veinsmobility co2emission ETV
vector 492 RSUExampleScenario.node[56].veinsmobility acceleration ETV
vector 493 RSUExampleScenario.node[56].veinsmobility co2emission ETV
vector 494 RSUExampleScenario.node[57].veinsmobility acceleration ETV
vector 495 RSUExampleScenario.node[57].veinsmobility co2emission ETV
vector 496 RSUExampleScenario.node[58].veinsmobility acceleration ETV
vector 497 RSUExampleScenario.node[58].veinsmobility co2emission ETV
vector 498 RSUExampleScenario.node[59].veinsmobility acceleration ETV
vector 499 RSUExampleScenario.node[59].veinsmobility co2emission ETV
vector 500 RSUExampleScenario.node[60].veinsmobility acceleration ETV
vector 501 RSUExampleScenario.node[60].veinsmobility co2emission ETV
vector 502 RSUExampleScenario.node[61].veinsmobility acceleration ETV
vector 503 RSUExampleScenario.node[61].veinsmobility co2emission ETV
vector 504 RSUExampleScenario.node[62].veinsmobility acceleration ETV
vector 505 RSUExampleScenario.node[62].veinsmobility co2emission ETV
vector 506 RSUExampleScenario.node[63].veinsmobility acceleration ETV
vector 507 RSUExampleScenario.node[63].veinsmobility co2emission ETV
vector 508 RSUExampleScenario.node[64].veinsmobility acceleration ETV
vector 509 RSUExampleScenario.node[64].veinsmobility co2emission ETV
vector 510 RSUExampleScenario.node[65].veinsmobility acceleration ETV
vector 511 RSUExampleScenario.node[65].veinsmobility co2emission ETV
vector 512 RSUExampleScenario.node[66].veinsmobility acceleration ETV
vector 513 RSUExampleScenario.node[66].veinsmobility co2emission ETV
vector 514 RSUExampleScenario.node[67].veinsmobility acceleration ETV
vector 515 RSUExampleScenario.node[67].veinsmobility co2emission ETV
vector 516 RSUExampleScenario.node[68].veinsmobility acceleration ETV
vector 517 RSUExampleScenario.node[68].veinsmobility co2emission ETV
vector 518 RSUExampleScenario.node[69].veinsmobility acceleration ETV
vector 519 RSUExampleScenario.node[69].veinsmobility co2emission ETV
vector 520 RSUExampleScenario.node[70].veinsmobility acceleration ETV
vector 521 RSUExampleScenario.node[70].veinsmobility co2emission ETV
vector 522 RSUExampleScenario.node[71].veinsmobility acceleration ETV
vector 523 RSUExampleScenario.node[71].veinsmobility co2emission ETV
vector 524 RSUExampleScenario.node[72].veinsmobility acceleration ETV
vector 525 RSUExampleScenario.node[72].veinsmobility co2emission ETV
vector 526 RSUExampleScenario.node[73].veinsmobility acceleration ETV
vector 527 RSUExampleScenario.node[73].veinsmobility co2emission ETV
vector 528 RSUExampleScenario.node[74].veinsmobility acceleration ETV
vector 529 RSUExampleScenario.node[74].veinsmobility co2emission ETV
vector 530 RSUExampleScenario.node[75].veinsmobility acceleration ETV
vector 531 RSUExampleScenario.node[75].veinsmobility co2emission ETV
vector 532 RSUExampleScenario.node[76].veinsmobility speed ETV
vector 533 RSUExampleScenario.node[77].veinsmobility speed ETV
vector 534 RSUExampleScenario.node[78].veinsmobility speed ETV
vector 535 RSUExampleScenario.node[79].veinsmobility speed ETV
vector 536 RSUExampleScenario.node[80].veinsmobility speed ETV
vector 537 RSUExampleScenario.node[81].veinsmobility speed ETV
vector 538 RSUExampleScenario.node[82].veinsmobility speed ETV
vector 539 RSUExampleScenario.node[83].veinsmobility speed ETV
vector 540 RSUExampleScenario.node[84].veinsmobility speed ETV
vector 541 RSUExampleScenario.node[85].veinsmobility speed ETV
vector 542 RSUExampleScenario.node[86].veinsmobility speed ETV
vector 543 RSUExampleScenario.node[87].veinsmobility speed ETV
vector 544 RSUExampleScenario.node[88].veinsmobility speed ETV
vector 545 RSUExampleScenario.node[89].veinsmobility speed ETV
vector 546 RSUExampleScenario.node[90].veinsmobility speed ETV
vector 547 RSUExampleScenario.node[91].veinsmobility speed ETV
vector 548 RSUExampleScenario.node[92].veinsmobility speed ETV
vector 549 RSUExampleScenario.node[93].veinsmobility speed ETV
vector 550 RSUExampleScenario.node[94].veinsmobility speed ETV
vector 551 RSUExampleScenario.node[95].veinsmobility speed ETV
vector 552 RSUExampleScenario.node[96].veinsmobility speed ETV
vector 553 RSUExampleScenario.node[97].veinsmobility speed ETV
vector 554 RSUExampleScenario.node[98].veinsmobility speed ETV
vector 555 RSUExampleScenario.node[99].veinsmobility speed ETV
vector 556 RSUExampleScenario.node[100].veinsmobility speed ETV
vector 557 RSUExampleScenario.node[101].veinsmobility speed ETV
vector 558 RSUExampleScenario.node[102].veinsmobility speed ETV
vector 559 RSUExampleScenario.node[103].veinsmobility speed ETV
vector 560 RSUExampleScenario.node[104].veinsmobility speed ETV
vector 561 RSUExampleScenario.node[105].veinsmobility speed ETV
vector 562 RSUExampleScenario.node[106].veinsmobility speed ETV
vector 563 RSUExampleScenario.node[107].veinsmobility speed ETV
vector 564 RSUExampleScenario.node[108].veinsmobility speed ETV
vector 565 RSUExampleScenario.node[109].veinsmobility speed ETV
vector 566 RSUExampleScenario.node[110].veinsmobility speed ETV
vector 567 RSUExampleScenario.node[111].veinsmobility speed ETV
vector 568 RSUExampleScenario.node[112].veinsmobility speed ETV
vector 569 RSUExampleScenario.node[113].veinsmobility speed ETV
vector 570 RSUExampleScenario.node[114].veinsmobility speed ETV
vector 571 RSUExampleScenario.node[115].veinsmobility speed ETV
vector 572 RSUExampleScenario.node[116].veinsmobility speed ETV
vector 573 RSUExampleScenario.node[152].veinsmobility posx ETV
vector 574 RSUExampleScenario.node[152].veinsmobility posy ETV
vector 575 RSUExampleScenario.node[153].veinsmobility posx ETV
vector 576 RSUExampleScenario.node[153].veinsmobility posy ETV
vector 577 RSUExampleScenario.node[154].veinsmobility posx ETV
vector 578 RSUExampleScenario.node[154].veinsmobility posy ETV
vector 579 RSUExampleScenario.node[155].veinsmobility posx ETV
vector 580 RSUExampleScenario.node[155].veinsmobility posy ETV
vector 581 RSUExampleScenario.node[156].veinsmobility posx ETV
vector 582 RSUExampleScenario.node[156].veinsmobility posy ETV
vector 583 RSUExampleScenario.node[157].veinsmobility posx ETV
vector 584 RSUExampleScenario.node[157].veinsmobility posy ETV
vector 585 RSUExampleScenario.node[158].veinsmobility posx ETV
vector 586 RSUExampleScenario.node[158].veinsmobility posy ETV
vector 587 RSUExampleScenario.node[159].veinsmobility posx ETV
vector 588 RSUExampleScenario.node[159].veinsmobility posy ETV
vector 589 RSUExampleScenario.node[160].veinsmobility posx ETV
vector 590 RSUExampleScenario.node[160].veinsmobility posy ETV
vector 591 RSUExampleScenario.node[161].veinsmobility posx ETV
vector 592 RSUExampleScenario.node[161].veinsmobility posy ETV
vector 593 RSUExampleScenario.node[162].veinsmobility posx ETV
vector 594 RSUExampleScenario.node[162].veinsmobility posy ETV
vector 595 RSUExampleScenario.node[163].veinsmobility posx ETV
vector 596 RSUExampleScenario.node[163].veinsmobility posy ETV
vector 597 RSUExampleScenario.node[164].veinsmobility posx ETV
vector 598 RSUExampleScenario.node[164].veinsmobility posy ETV
vector 599 RSUExampleScenario.node[165].veinsmobility posx ETV
vector 600 RSUExampleScenario.node[165].veinsmobility posy ETV
vector 601 RSUExampleScenario.node[166].veinsmobility posx ETV
vector 602 RSUExampleScenario.node[166].veinsmobility posy ETV
vector 603 RSUExampleScenario.node[167].veinsmobility posx ETV
vector 604 RSUExampleScenario.node[167].veinsmobility posy ETV
vector 605 RSUExampleScenario.node[168].veinsmobility posx ETV
vector 606 RSUExampleScenario.node[168].veinsmobility posy ETV
vector 607 RSUExampleScenario.node[169].veinsmobility posx ETV
vector 608 RSUExampleScenario.node[169].veinsmobility posy ETV
vector 609 RSUExampleScenario.node[170].veinsmobility posx ETV
vector 610 RSUExampleScenario.node[170].veinsmobility posy ETV
vector 611 RSUExampleScenario.node[171].veinsmobility posx ETV
vector 612 RSUExampleScenario.node[171].veinsmobility posy ETV
vector 613 RSUExampleScenario.node[172].veinsmobility posx ETV
vector 614 RSUExampleScenario.node[172].veinsmobility posy ETV
vector 615 RSUExampleScenario.node[173].veinsmobility posx ETV
vector 616 RSUExampleScenario.node[173].veinsmobility posy ETV
vector 617 RSUExampleScenario.node[174].veinsmobility posx ETV
vector 618 RSUExampleScenario.node[174].veinsmobility posy ETV
vector 619 RSUExampleScenario.node[175].veinsmobility posx ETV
vector 620 RSUExampleScenario.node[175].veinsmobility posy ETV
vector 621 RSUExampleScenario.node[176].veinsmobility posx ETV
vector 622 RSUExampleScenario.node[176].veinsmobility posy ETV
vector 623 RSUExampleScenario.node[177].veinsmobility posx ETV
vector 624 RSUExampleScenario.node[177].veinsmobility posy ETV
vector 625 RSUExampleScenario.node[178].veinsmobility posx ETV
vector 626 RSUExampleScenario.node[178].veinsmobility posy ETV
vector 627 RSUExampleScenario.node[179].veinsmobility posx ETV
vector 628 RSUExampleScenario.node[179].veinsmobility posy ETV
vector 629 RSUExampleScenario.node[180].veinsmobility posx ETV
vector 630 RSUExampleScenario.node[180].veinsmobility posy ETV
vector 631 RSUExampleScenario.node[181].veinsmobility posx ETV
vector 632 RSUExampleScenario.node[181].veinsmobility posy ETV
vector 633 RSUExampleScenario.node[182].veinsmobility posx ETV
vector 634 RSUExampleScenario.node[182].veinsmobility posy ETV
vector 635 RSUExampleScenario.node[183].veinsmobility posx ETV
vector 636 RSUExampleScenario.node[183].veinsmobility posy ETV
vector 637 RSUExampleScenario.node[184].veinsmobility posx ETV
vector 638 RSUExampleScenario.node[184].veinsmobility posy ETV
vector 639 RSUExampleScenario.node[185].veinsmobility posx ETV
vector 640 RSUExampleScenario.node[185].veinsmobility posy ETV
vector 641 RSUExampleScenario.node[186].veinsmobility posx ETV
vector 642 RSUExampleScenario.node[186].veinsmobility posy ETV
vector 643 RSUExampleScenario.node[187].veinsmobility posx ETV
vector 644 RSUExampleScenario.node[187].veinsmobility posy ETV
vector 645 RSUExampleScenario.node[188].veinsmobility posx ETV
vector 646 RSUExampleScenario.node[188].veinsmobility posy ETV
vector 647 RSUExampleScenario.node[189].veinsmobility posx ETV
vector 648 RSUExampleScenario.node[189].veinsmobility posy ETV
vector 649 RSUExampleScenario.node[190].veinsmobility posx ETV
vector 650 RSUExampleScenario.node[190].veinsmobility posy ETV
vector 651 RSUExampleScenario.node[191].veinsmobility posx ETV
vector 652 RSUExampleScenario.node[191].veinsmobility posy ETV
vector 653 RSUExampleScenario.node[192].veinsmobility posx ETV
vector 654 RSUExampleScenario.node[192].veinsmobility posy ETV
vector 655 RSUExampleScenario.node[193].veinsmobility posx ETV
vector 656 RSUExampleScenario.node[193].veinsmobility posy ETV
vector 657 RSUExampleScenario.node[194].veinsmobility posx ETV
vector 658 RSUExampleScenario.node[194].veinsmobility posy ETV
vector 659 RSUExampleScenario.node[195].veinsmobility posx ETV
vector 660 RSUExampleScenario.node[195].veinsmobility posy ETV
vector 661 RSUExampleScenario.node[196].veinsmobility posx ETV
vector 662 RSUExampleScenario.node[196].veinsmobility posy ETV
vector 663 RSUExampleScenario.node[197].veinsmobility posx ETV
vector 664 RSUExampleScenario.node[197].veinsmobility posy ETV
vector 665 RSUExampleScenario.node[198].veinsmobility posx ETV
vector 666 RSUExampleScenario.node[198].veinsmobility posy ETV
vector 667 RSUExampleScenario.node[199].veinsmobility posx ETV
vector 668 RSUExampleScenario.node[199].veinsmobility posy ETV
vector 669 RSUExampleScenario.node[200].veinsmobility posx ETV
vector 670 RSUExampleScenario.node[200].veinsmobility posy ETV
vector 671 RSUExampleScenario.node[201].veinsmobility posx ETV
vector 672 RSUExampleScenario.node[201].veinsmobility posy ETV
vector 673 RSUExampleScenario.node[202].veinsmobility posx ETV
vector 674 RSUExampleScenario.node[202].veinsmobility posy ETV
vector 675 RSUExampleScenario.node[203].veinsmobility posx ETV
vector 676 RSUExampleScenario.node[203].veinsmobility posy ETV
vector 677 RSUExampleScenario.node[204].veinsmobility posx ETV
vector 678 RSUExampleScenario.node[204].veinsmobility posy ETV
vector 679 RSUExampleScenario.node[205].veinsmobility posx ETV
vector 680 RSUExampleScenario.node[205].veinsmobility posy ETV
vector 681 RSUExampleScenario.node[206].veinsmobility posx ETV
vector 682 RSUExampleScenario.node[206].veinsmobility posy ETV
vector 683 RSUExampleScenario.node[207].veinsmobility posx ETV
vector 684 RSUExampleScenario.node[207].veinsmobility posy ETV
vector 685 RSUExampleScenario.node[208].veinsmobility posx ETV
vector 686 RSUExampleScenario.node[208].veinsmobility posy ETV
vector 687 RSUExampleScenario.node[209].veinsmobility posx ETV
vector 688 RSUExampleScenario.node[209].veinsmobility posy ETV
vector 689 RSUExampleScenario.node[210].veinsmobility posx ETV
vector 690 RSUExampleScenario.node[210].veinsmobility posy ETV
vector 691 RSUExampleScenario.node[211].veinsmobility posx ETV
vector 692 RSUExampleScenario.node[211].veinsmobility posy ETV
vector 693 RSUExampleScenario.node[76].veinsmobility acceleration ETV
vector 694 RSUExampleScenario.node[76].veinsmobility co2emission ETV
vector 695 RSUExampleScenario.node[77].veinsmobility acceleration ETV
vector 696 RSUExampleScenario.node[77].veinsmobility co2emission ETV
vector 697 RSUExampleScenario.node[78].veinsmobility acceleration ETV
vector 698 RSUExampleScenario.node[78].veinsmobility co2emission ETV
vector 699 RSUExampleScenario.node[79].veinsmobility acceleration ETV
vector 700 RSUExampleScenario.node[79].veinsmobility co2emission ETV
vector 701 RSUExampleScenario.node[80].veinsmobility acceleration ETV
vector 702 RSUExampleScenario.node[80].veinsmobility co2emission ETV
vector 703 RSUExampleScenario.node[81].veinsmobility acceleration ETV
vector 704 RSUExampleScenario.node[81].veinsmobility co2emission ETV
vector 705 RSUExampleScenario.node[82].veinsmobility acceleration ETV
vector 706 RSUExampleScenario.node[82].veinsmobility co2emission ETV
vector 707 RSUExampleScenario.node[83].veinsmobility acceleration ETV
vector 708 RSUExampleScenario.node[83].veinsmobility co2emission ETV
vector 709 RSUExampleScenario.node[84].veinsmobility acceleration ETV
vector 710 RSUExampleScenario.node[84].veinsmobility co2emission ETV
vector 711 RSUExampleScenario.node[85].veinsmobility acceleration ETV
vector 712 RSUExampleScenario.node[85].veinsmobility co2emission ETV
vector 713 RSUExampleScenario.node[86].veinsmobility acceleration ETV
vector 714 RSUExampleScenario.node[86].veinsmobility co2emission ETV
vector 715 RSUExampleScenario.node[87].veinsmobility acceleration ETV
vector 716 RSUExampleScenario.node[87].veinsmobility co2emission ETV
vector 717 RSUExampleScenario.node[88].veinsmobility acceleration ETV
vector 718 RSUExampleScenario.node[88].veinsmobility co2emission ETV
vector 719 RSUExampleScenario.node[89].veinsmobility acceleration ETV
vector 720 RSUExampleScenario.node[89].veinsmobility co2emission ETV
vector 721 RSUExampleScenario.node[90].veinsmobility acceleration ETV
vector 722 RSUExampleScenario.node[90].veinsmobility co2emission ETV
vector 723 RSUExampleScenario.node[91].veinsmobility acceleration ETV
vector 724 RSUExampleScenario.node[91].veinsmobility co2emission ETV
vector 725 RSUExampleScenario.node[92].veinsmobility acceleration ETV
vector 726 RSUExampleScenario.node[92].veinsmobility co2emission ETV
vector 727 RSUExampleScenario.node[93].veinsmobility acceleration ETV
vector 728 RSUExampleScenario.node[93].veinsmobility co2emission ETV
vector 729 RSUExampleScenario.node[94].veinsmobility acceleration ETV
vector 730 RSUExampleScenario.node[94].veinsmobility co2emission ETV
vector 731 RSUExampleScenario.node[95].veinsmobility acceleration ETV
vector 732 RSUExampleScenario.node[95].veinsmobility co2emission ETV
vector 733 RSUExampleScenario.node[96].veinsmobility acceleration ETV
vector 734 RSUExampleScenario.node[96].veinsmobility co2emission ETV
vector 735 RSUExampleScenario.node[97].veinsmobility acceleration ETV
vector 736 RSUExampleScenario.node[97].veinsmobility co2emission ETV
vector 737 RSUExampleScenario.node[98].veinsmobility acceleration ETV
vector 738 RSUExampleScenario.node[98].veinsmobility co2emission ETV
vector 739 RSUExampleScenario.node[99].veinsmobility acceleration ETV
vector 740 RSUExampleScenario.node[99].veinsmobility co2emission ETV
vector 741 RSUExampleScenario.node[100].veinsmobility acceleration ETV
vector 742 RSUExampleScenario.node[100].veinsmobility co2emission ETV
vector 743 RSUExampleScenario.node[101].veinsmobility acceleration ETV
vector 744 RSUExampleScenario.node[101].veinsmobility co2emission ETV
vector 745 RSUExampleScenario.node[102].veinsmobility acceleration ETV
vector 746 RSUExampleScenario.node[102].veinsmobility co2emission ETV
vector 747 RSUExampleScenario.node[103].veinsmobility acceleration ETV
vector 748 RSUExampleScenario.node[103].veinsmobility co2emission ETV
vector 749 RSUExampleScenario.node[104].veinsmobility acceleration ETV
vector 750 RSUExampleScenario.node[104].veinsmobility co2emission ETV
vector 751 RSUExampleScenario.node[105].veinsmobility acceleration ETV
vector 752 RSUExampleScenario.node[105].veinsmobility co2emission ETV
vector 753 RSUExampleScenario.node[106].veinsmobility acceleration ETV
vector 754 RSUExampleScenario.node[106].veinsmobility co2emission ETV
vector 755 RSUExampleScenario.node[107].veinsmobility acceleration ETV
vector 756 RSUExampleScenario.node[107].veinsmobility co2emission ETV
vector 757 RSUExampleScenario.node[108].veinsmobility acceleration ETV
vector 758 RSUExampleScenario.node[108].veinsmobility co2emission ETV
vector 759 RSUExampleScenario.node[109].veinsmobility acceleration ETV
vector 760 RSUExampleScenario.node[109].veinsmobility co2emission ETV
vector 761 RSUExampleScenario.node[110].veinsmobility acceleration ETV
vector 762 RSUExampleScenario.node[110].veinsmobility co2emission ETV
vector 763 RSUExampleScenario.node[111].veinsmobility acceleration ETV
vector 764 RSUExampleScenario.node[111].veinsmobility co2emission ETV
vector 765 RSUExampleScenario.node[112].veinsmobility acceleration ETV
vector 766 RSUExampleScenario.node[112].veinsmobility co2emission ETV
vector 767 RSUExampleScenario.node[113].veinsmobility acceleration ETV
vector 768 RSUExampleScenario.node[113].veinsmobility co2emission ETV
vector 769 RSUExampleScenario.node[114].veinsmobility acceleration ETV
vector 770 RSUExampleScenario.node[114].veinsmobility co2emission ETV
vector 771 RSUExampleScenario.node[115].veinsmobility acceleration ETV
vector 772 RSUExampleScenario.node[115].veinsmobility co2emission ETV
vector 773 RSUExampleScenario.node[116].veinsmobility acceleration ETV
vector 774 RSUExampleScenario.node[116].veinsmobility co2emission ETV
vector 775 RSUExampleScenario.node[117].veinsmobility speed ETV
vector 776 RSUExampleScenario.node[118].veinsmobility speed ETV
vector 777 RSUExampleScenario.node[119].veinsmobility speed ETV
vector 778 RSUExampleScenario.node[120].veinsmobility speed ETV
vector 779 RSUExampleScenario.node[121].veinsmobility speed ETV
vector 780 RSUExampleScenario.node[122].veinsmobility speed ETV
vector 781 RSUExampleScenario.node[123].veinsmobility speed ETV
vector 782 RSUExampleScenario.node[124].veinsmobility speed ETV
vector 783 RSUExampleScenario.node[125].veinsmobility speed ETV
vector 784 RSUExampleScenario.node[126].veinsmobility speed ETV
vector 785 RSUExampleScenario.node[127].veinsmobility speed ETV
vector 786 RSUExampleScenario.node[128].veinsmobility speed ETV
vector 787 RSUExampleScenario.node[129].veinsmobility speed ETV
vector 788 RSUExampleScenario.node[130].veinsmobility speed ETV
vector 789 RSUExampleScenario.node[131].veinsmobility speed ETV
vector 790 RSUExampleScenario.node[132].veinsmobility speed ETV
vector 791 RSUExampleScenario.node[133].veinsmobility speed ETV
vector 792 RSUExampleScenario.node[134].veinsmobility speed ETV
vector 793 RSUExampleScenario.node[135].veinsmobility speed ETV
vector 794 RSUExampleScenario.node[136].veinsmobility speed ETV
vector 795 RSUExampleScenario.node[137].veinsmobility speed ETV
vector 796 RSUExampleScenario.node[138].veinsmobility speed ETV
vector 797 RSUExampleScenario.node[139].veinsmobility speed ETV
vector 798 RSUExampleScenario.node[140].veinsmobility speed ETV
vector 799 RSUExampleScenario.node[141].veinsmobility speed ETV
vector 800 RSUExampleScenario.node[142].veinsmobility speed ETV
vector 801 RSUExampleScenario.node[143].veinsmobility speed ETV
vector 802 RSUExampleScenario.node[144].veinsmobility speed ETV
vector 803 RSUExampleScenario.node[145].veinsmobility speed ETV
vector 804 RSUExampleScenario.node[146].veinsmobility speed ETV
vector 805 RSUExampleScenario.node[147].veinsmobility speed ETV
vector 806 RSUExampleScenario.node[148].veinsmobility speed ETV
vector 807 RSUExampleScenario.node[149].veinsmobility speed ETV
vector 808 RSUExampleScenario.node[150].veinsmobility speed ETV
vector 809 RSUExampleScenario.node[151].veinsmobility speed ETV
vector 810 RSUExampleScenario.node[212].veinsmobility posx ETV
vector 811 RSUExampleScenario.node[212].veinsmobility posy ETV
vector 812 RSUExampleScenario.node[213].veinsmobility posx ETV
vector 813 RSUExampleScenario.node[213].veinsmobility posy ETV
vector 814 RSUExampleScenario.node[214].veinsmobility posx ETV
vector 815 RSUExampleScenario.node[214].veinsmobility posy ETV
vector 816 RSUExampleScenario.node[215].veinsmobility posx ETV
vector 817 RSUExampleScenario.node[215].veinsmobility posy ETV
vector 818 RSUExampleScenario.node[216].veinsmobility posx ETV
vector 819 RSUExampleScenario.node[216].veinsmobility posy ETV
vector 820 RSUExampleScenario.node[217].veinsmobility posx ETV
vector 821 RSUExampleScenario.node[217].veinsmobility posy ETV
vector 822 RSUExampleScenario.node[218].veinsmobility posx ETV
vector 823 RSUExampleScenario.node[218].veinsmobility posy ETV
vector 824 RSUExampleScenario.node[219].veinsmobility posx ETV
vector 825 RSUExampleScenario.node[219].veinsmobility posy ETV
vector 826 RSUExampleScenario.node[220].veinsmobility posx ETV
vector 827 RSUExampleScenario.node[220].veinsmobility posy ETV
vector 828 RSUExampleScenario.node[221].veinsmobility posx ETV
vector 829 RSUExampleScenario.node[221].veinsmobility posy ETV
vector 830 RSUExampleScenario.node[222].veinsmobility posx ETV
vector 831 RSUExampleScenario.node[222].veinsmobility posy ETV
vector 832 RSUExampleScenario.node[223].veinsmobility posx ETV
vector 833 RSUExampleScenario.node[223].veinsmobility posy ETV
vector 834 RSUExampleScenario.node[224].veinsmobility posx ETV
vector 835 RSUExampleScenario.node[224].veinsmobility posy ETV
vector 836 RSUExampleScenario.node[225].veinsmobility posx ETV
vector 837 RSUExampleScenario.node[225].veinsmobility posy ETV
vector 838 RSUExampleScenario.node[226].veinsmobility posx ETV
vector 839 RSUExampleScenario.node[226].veinsmobility posy ETV
vector 840 RSUExampleScenario.node[227].veinsmobility posx ETV
vector 841 RSUExampleScenario.node[227].veinsmobility posy ETV
vector 842 RSUExampleScenario.node[228].veinsmobility posx ETV
vector 843 RSUExampleScenario.node[228].veinsmobility posy ETV
vector 844 RSUExampleScenario.node[229].veinsmobility posx ETV
vector 845 RSUExampleScenario.node[229].veinsmobility posy ETV
vector 846 RSUExampleScenario.node[230].veinsmobility posx ETV
vector 847 RSUExampleScenario.node[230].veinsmobility posy ETV
vector 848 RSUExampleScenario.node[231].veinsmobility posx ETV
vector 849 RSUExampleScenario.node[231].veinsmobility posy ETV
vector 850 RSUExampleScenario.node[232].veinsmobility posx ETV
vector 851 RSUExampleScenario.node[232].veinsmobility posy ETV
vector 852 RSUExampleScenario.node[233].veinsmobility posx ETV
vector 853 RSUExampleScenario.node[233].veinsmobility posy ETV
vector 854 RSUExampleScenario.node[234].veinsmobility posx ETV
vector 855 RSUExampleScenario.node[234].veinsmobility posy ETV
vector 856 RSUExampleScenario.node[235].veinsmobility posx ETV
vector 857 RSUExampleScenario.node[235].veinsmobility posy ETV
vector 858 RSUExampleScenario.node[236].veinsmobility posx ETV
vector 859 RSUExampleScenario.node[236].veinsmobility posy ETV
vector 860 RSUExampleScenario.node[237].veinsmobility posx ETV
vector 861 RSUExampleScenario.node[237].veinsmobility posy ETV
vector 862 RSUExampleScenario.node[238].veinsmobility posx ETV
vector 863 RSUExampleScenario.node[238].veinsmobility posy ETV
vector 864 RSUExampleScenario.node[239].veinsmobility posx ETV
vector 865 RSUExampleScenario.node[239].veinsmobility posy ETV
vector 866 RSUExampleScenario.node[240].veinsmobility posx ETV
vector 867 RSUExampleScenario.node[240].veinsmobility posy ETV
vector 868 RSUExampleScenario.node[241].veinsmobility posx ETV
vector 869 RSUExampleScenario.node[241].veinsmobility posy ETV
vector 870 RSUExampleScenario.node[242].veinsmobility posx ETV
vector 871 RSUExampleScenario.node[242].veinsmobility posy ETV
vector 872 RSUExampleScenario.node[243].veinsmobility posx ETV
vector 873 RSUExampleScenario.node[243].veinsmobility posy ETV
vector 874 RSUExampleScenario.node[244].veinsmobility posx ETV
vector 875 RSUExampleScenario.node[244].veinsmobility posy ETV
vector 876 RSUExampleScenario.node[117].veinsmobility acceleration ETV
vector 877 RSUExampleScenario.node[117].veinsmobility co2emission ETV
vector 878 RSUExampleScenario.node[118].veinsmobility acceleration ETV
vector 879 RSUExampleScenario.node[118].veinsmobility co2emission ETV
vector 880 RSUExampleScenario.node[119].veinsmobility acceleration ETV
vector 881 RSUExampleScenario.node[119].veinsmobility co2emission ETV
vector 882 RSUExampleScenario.node[120].veinsmobility acceleration ETV
vector 883 RSUExampleScenario.node[120].veinsmobility co2emission ETV
vector 884 RSUExampleScenario.node[121].veinsmobility acceleration ETV
vector 885 RSUExampleScenario.node[121].veinsmobility co2emission ETV
vector 886 RSUExampleScenario.node[122].veinsmobility acceleration ETV
vector 887 RSUExampleScenario.node[122].veinsmobility co2emission ETV
vector 888 RSUExampleScenario.node[123].veinsmobility acceleration ETV
vector 889 RSUExampleScenario.node[123].veinsmobility co2emission ETV
vector 890 RSUExampleScenario.node[124].veinsmobility acceleration ETV
vector 891 RSUExampleScenario.node[124].veinsmobility co2emission ETV
vector 892 RSUExampleScenario.node[125].veinsmobility acceleration ETV
vector 893 RSUExampleScenario.node[125].veinsmobility co2emission ETV
vector 894 RSUExampleScenario.node[126].veinsmobility acceleration ETV
vector 895 RSUExampleScenario.node[126].veinsmobility co2emission ETV
vector 896 RSUExampleScenario.node[127].veinsmobility acceleration ETV
vector 897 RSUExampleScenario.node[127].veinsmobility co2emission ETV
vector 898 RSUExampleScenario.node[128].veinsmobility acceleration ETV
vector 899 RSUExampleScenario.node[128].veinsmobility co2emission ETV
vector 900 RSUExampleScenario.node[129].veinsmobility acceleration ETV
vector 901 RSUExampleScenario.node[129].veinsmobility co2emission ETV
vector 902 RSUExampleScenario.node[130].veinsmobility acceleration ETV
vector 903 RSUExampleScenario.node[130].veinsmobility co2emission ETV
vector 904 RSUExampleScenario.node[131].veinsmobility acceleration ETV
vector 905 RSUExampleScenario.node[131].veinsmobility co2emission ETV
vector 906 RSUExampleScenario.node[132].veinsmobility acceleration ETV
vector 907 RSUExampleScenario.node[132].veinsmobility co2emission ETV
vector 908 RSUExampleScenario.node[133].veinsmobility acceleration ETV
vector 909 RSUExampleScenario.node[133].veinsmobility co2emission ETV
vector 910 RSUExampleScenario.node[134].veinsmobility acceleration ETV
vector 911 RSUExampleScenario.node[134].veinsmobility co2emission ETV
vector 912 RSUExampleScenario.node[135].veinsmobility acceleration ETV
vector 913 RSUExampleScenario.node[135].veinsmobility co2emission ETV
vector 914 RSUExampleScenario.node[136].veinsmobility acceleration ETV
vector 915 RSUExampleScenario.node[136].veinsmobility co2emission ETV
vector 916 RSUExampleScenario.node[137].veinsmobility acceleration ETV
vector 917 RSUExampleScenario.node[137].veinsmobility co2emission ETV
vector 918 RSUExampleScenario.node[138].veinsmobility acceleration ETV
vector 919 RSUExampleScenario.node[138].veinsmobility co2emission ETV
vector 920 RSUExampleScenario.node[139].veinsmobility acceleration ETV
vector 921 RSUExampleScenario.node[139].veinsmobility co2emission ETV
vector 922 RSUExampleScenario.node[140].veinsmobility acceleration ETV
vector 923 RSUExampleScenario.node[140].veinsmobility co2emission ETV
vector 924 RSUExampleScenario.node[141].veinsmobility acceleration ETV
vector 925 RSUExampleScenario.node[141].veinsmobility co2emission ETV
vector 926 RSUExampleScenario.node[142].veinsmobility acceleration ETV
vector 927 RSUExampleScenario.node[142].veinsmobility co2emission ETV
vector 928 RSUExampleScenario.node[143].veinsmobility acceleration ETV
vector 929 RSUExampleScenario.node[143].veinsmobility co2emission ETV
vector 930 RSUExampleScenario.node[144].veinsmobility acceleration ETV
vector 931 RSUExampleScenario.node[144].veinsmobility co2emission ETV
vector 932 RSUExampleScenario.node[145].veinsmobility acceleration ETV
vector 933 RSUExampleScenario.node[145].veinsmobility co2emission ETV
vector 934 RSUExampleScenario.node[146].veinsmobility acceleration ETV
vector 935 RSUExampleScenario.node[146].veinsmobility co2emission ETV
vector 936 RSUExampleScenario.node[147].veinsmobility acceleration ETV
vector 937 RSUExampleScenario.node[147].veinsmobility co2emission ETV
vector 938 RSUExampleScenario.node[148].veinsmobility acceleration ETV
vector 939 RSUExampleScenario.node[148].veinsmobility co2emission ETV
vector 940 RSUExampleScenario.node[149].veinsmobility acceleration ETV
vector 941 RSUExampleScenario.node[149].veinsmobility co2emission ETV
vector 942 RSUExampleScenario.node[150].veinsmobility acceleration ETV
vector 943 RSUExampleScenario.node[150].veinsmobility co2emission ETV
vector 944 RSUExampleScenario.node[151].veinsmobility acceleration ETV
vector 945 RSUExampleScenario.node[151].veinsmobility co2emission ETV
vector 946 RSUExampleScenario.node[152].veinsmobility speed ETV
vector 947 RSUExampleScenario.node[153].veinsmobility speed ETV
vector 948 RSUExampleScenario.node[154].veinsmobility speed ETV
vector 949 RSUExampleScenario.node[155].veinsmobility speed ETV
vector 950 RSUExampleScenario.node[156].veinsmobility speed ETV
vector 951 RSUExampleScenario.node[157].veinsmobility speed ETV
vector 952 RSUExampleScenario.node[158].veinsmobility speed ETV
vector 953 RSUExampleScenario.node[159].veinsmobility speed ETV
vector 954 RSUExampleScenario.node[160].veinsmobility speed ETV
vector 955 RSUExampleScenario.node[161].veinsmobility speed ETV
vector 956 RSUExampleScenario.node[162].veinsmobility speed ETV
vector 957 RSUExampleScenario.node[163].veinsmobility speed ETV
vector 958 RSUExampleScenario.node[164].veinsmobility speed ETV
vector 959 RSUExampleScenario.node[165].veinsmobility speed ETV
vector 960 RSUExampleScenario.node[166].veinsmobility speed ETV
vector 961 RSUExampleScenario.node[167].veinsmobility speed ETV
vector 962 RSUExampleScenario.node[168].veinsmobility speed ETV
vector 963 RSUExampleScenario.node[169].veinsmobility speed ETV
vector 964 RSUExampleScenario.node[170].veinsmobility speed ETV
vector 965 RSUExampleScenario.node[171].veinsmobility speed ETV
vector 966 RSUExampleScenario.node[172].veinsmobility speed ETV
vector 967 RSUExampleScenario.node[173].veinsmobility speed ETV
vector 968 RSUExampleScenario.node[174].veinsmobility speed ETV
vector 969 RSUExampleScenario.node[175].veinsmobility speed ETV
vector 970 RSUExampleScenario.node[176].veinsmobility speed ETV
vector 971 RSUExampleScenario.node[177].veinsmobility speed ETV
vector 972 RSUExampleScenario.node[178].veinsmobility speed ETV
vector 973 RSUExampleScenario.node[179].veinsmobility speed ETV
vector 974 RSUExampleScenario.node[180].veinsmobility speed ETV
vector 975 RSUExampleScenario.node[181].veinsmobility speed ETV
vector 976 RSUExampleScenario.node[182].veinsmobility speed ETV
vector 977 RSUExampleScenario.node[183].veinsmobility speed ETV
vector 978 RSUExampleScenario.node[184].veinsmobility speed ETV
vector 979 RSUExampleScenario.node[185].veinsmobility speed ETV
vector 980 RSUExampleScenario.node[186].veinsmobility speed ETV
vector 981 RSUExampleScenario.node[187].veinsmobility speed ETV
vector 982 RSUExampleScenario.node[188].veinsmobility speed ETV
vector 983 RSUExampleScenario.node[189].veinsmobility speed ETV
vector 984 RSUExampleScenario.node[190].veinsmobility speed ETV
vector 985 RSUExampleScenario.node[191].veinsmobility speed ETV
vector 986 RSUExampleScenario.node[192].veinsmobility speed ETV
vector 987 RSUExampleScenario.node[193].veinsmobility speed ETV
vector 988 RSUExampleScenario.node[194].veinsmobility speed ETV
vector 989 RSUExampleScenario.node[195].veinsmobility speed ETV
vector 990 RSUExampleScenario.node[196].veinsmobility speed ETV
vector 991 RSUExampleScenario.node[197].veinsmobility speed ETV
vector 992 RSUExampleScenario.node[198].veinsmobility speed ETV
vector 993 RSUExampleScenario.node[199].veinsmobility speed ETV
vector 994 RSUExampleScenario.node[200].veinsmobility speed ETV
vector 995 RSUExampleScenario.node[201].veinsmobility speed ETV
vector 996 RSUExampleScenario.node[202].veinsmobility speed ETV
vector 997 RSUExampleScenario.node[203].veinsmobility speed ETV
vector 998 RSUExampleScenario.node[204].veinsmobility speed ETV
vector 999 RSUExampleScenario.node[205].veinsmobility speed ETV
vector 1000 RSUExampleScenario.node[206].veinsmobility speed ETV
vector 1001 RSUExampleScenario.node[207].veinsmobility speed ETV
vector 1002 RSUExampleScenario.node[208].veinsmobility speed ETV
vector 1003 RSUExampleScenario.node[209].veinsmobility speed ETV
vector 1004 RSUExampleScenario.node[210].veinsmobility speed ETV
vector 1005 RSUExampleScenario.node[211].veinsmobility speed ETV
vector 1006 RSUExampleScenario.node[245].veinsmobility posx ETV
vector 1007 RSUExampleScenario.node[245].veinsmobility posy ETV
vector 1008 RSUExampleScenario.node[246].veinsmobility posx ETV
vector 1009 RSUExampleScenario.node[246].veinsmobility posy ETV
vector 1010 RSUExampleScenario.node[247].veinsmobility posx ETV
vector 1011 RSUExampleScenario.node[247].veinsmobility posy ETV
vector 1012 RSUExampleScenario.node[248].veinsmobility posx ETV
vector 1013 RSUExampleScenario.node[248].veinsmobility posy ETV
vector 1014 RSUExampleScenario.node[249].veinsmobility posx ETV
vector 1015 RSUExampleScenario.node[249].veinsmobility posy ETV
vector 1016 RSUExampleScenario.node[250].veinsmobility posx ETV
vector 1017 RSUExampleScenario.node[250].veinsmobility posy ETV
vector 1018 RSUExampleScenario.node[251].veinsmobility posx ETV
vector 1019 RSUExampleScenario.node[251].veinsmobility posy ETV
vector 1020 RSUExampleScenario.node[252].veinsmobility posx ETV
vector 1021 RSUExampleScenario.node[252].veinsmobility posy ETV
vector 1022 RSUExampleScenario.node[253].veinsmobility posx ETV
vector 1023 RSUExampleScenario.node[253].veinsmobility posy ETV
vector 1024 RSUExampleScenario.node[254].veinsmobility posx ETV
vector 1025 RSUExampleScenario.node[254].veinsmobility posy ETV
vector 1026 RSUExampleScenario.node[255].veinsmobility posx ETV
vector 1027 RSUExampleScenario.node[255].veinsmobility posy ETV
vector 1028 RSUExampleScenario.node[256].veinsmobility posx ETV
vector 1029 RSUExampleScenario.node[256].veinsmobility posy ETV
vector 1030 RSUExampleScenario.node[257].veinsmobility posx ETV
vector 1031 RSUExampleScenario.node[257].veinsmobility posy ETV
vector 1032 RSUExampleScenario.node[258].veinsmobility posx ETV
vector 1033 RSUExampleScenario.node[258].veinsmobility posy ETV
vector 1034 RSUExampleScenario.node[259].veinsmobility posx ETV
vector 1035 RSUExampleScenario.node[259].veinsmobility posy ETV
vector 1036 RSUExampleScenario.node[260].veinsmobility posx ETV
vector 1037 RSUExampleScenario.node[260].veinsmobility posy ETV
vector 1038 RSUExampleScenario.node[261].veinsmobility posx ETV
vector 1039 RSUExampleScenario.node[261].veinsmobility posy ETV
vector 1040 RSUExampleScenario.node[262].veinsmobility posx ETV
vector 1041 RSUExampleScenario.node[262].veinsmobility posy ETV
vector 1042 RSUExampleScenario.node[263].veinsmobility posx ETV
vector 1043 RSUExampleScenario.node[263].veinsmobility posy ETV
vector 1044 RSUExampleScenario.node[264].veinsmobility posx ETV
vector 1045 RSUExampleScenario.node[264].veinsmobility posy ETV
vector 1046 RSUExampleScenario.node[265].veinsmobility posx ETV
vector 1047 RSUExampleScenario.node[265].veinsmobility posy ETV
vector 1048 RSUExampleScenario.node[266].veinsmobility posx ETV
vector 1049 RSUExampleScenario.node[266].veinsmobility posy ETV
vector 1050 RSUExampleScenario.node[267].veinsmobility posx ETV
vector 1051 RSUExampleScenario.node[267].veinsmobility posy ETV
vector 1052 RSUExampleScenario.node[268].veinsmobility posx ETV
vector 1053 RSUExampleScenario.node[268].veinsmobility posy ETV
vector 1054 RSUExampleScenario.node[269].veinsmobility posx ETV
vector 1055 RSUExampleScenario.node[269].veinsmobility posy ETV
vector 1056 RSUExampleScenario.node[152].veinsmobility acceleration ETV
vector 1057 RSUExampleScenario.node[152].veinsmobility co2emission ETV
vector 1058 RSUExampleScenario.node[153].veinsmobility acceleration ETV
vector 1059 RSUExampleScenario.node[153].veinsmobility co2emission ETV
vector 1060 RSUExampleScenario.node[154].veinsmobility acceleration ETV
vector 1061 RSUExampleScenario.node[154].veinsmobility co2emission ETV
vector 1062 RSUExampleScenario.node[155].veinsmobility acceleration ETV
vector 1063 RSUExampleScenario.node[155].veinsmobility co2emission ETV
vector 1064 RSUExampleScenario.node[156].veinsmobility acceleration ETV
vector 1065 RSUExampleScenario.node[156].veinsmobility co2emission ETV
vector 1066 RSUExampleScenario.node[157].veinsmobility acceleration ETV
vector 1067 RSUExampleScenario.node[157].veinsmobility co2emission ETV
vector 1068 RSUExampleScenario.node[158].veinsmobility acceleration ETV
vector 1069 RSUExampleScenario.node[158].veinsmobility co2emission ETV
vector 1070 RSUExampleScenario.node[159].veinsmobility acceleration ETV
vector 1071 RSUExampleScenario.node[159].veinsmobility co2emission ETV
vector 1072 RSUExampleScenario.node[160].veinsmobility acceleration ETV
vector 1073 RSUExampleScenario.node[160].veinsmobility co2emission ETV
vector 1074 RSUExampleScenario.node[161].veinsmobility acceleration ETV
vector 1075 RSUExampleScenario.node[161].veinsmobility co2emission ETV
vector 1076 RSUExampleScenario.node[162].veinsmobility acceleration ETV
vector 1077 RSUExampleScenario.node[162].veinsmobility co2emission ETV
vector 1078 RSUExampleScenario.node[163].veinsmobility acceleration ETV
vector 1079 RSUExampleScenario.node[163].veinsmobility co2emission ETV
vector 1080 RSUExampleScenario.node[164].veinsmobility acceleration ETV
vector 1081 RSUExampleScenario.node[164].veinsmobility co2emission ETV
vector 1082 RSUExampleScenario.node[165].veinsmobility acceleration ETV
vector 1083 RSUExampleScenario.node[165].veinsmobility co2emission ETV
vector 1084 RSUExampleScenario.node[166].veinsmobility acceleration ETV
vector 1085 RSUExampleScenario.node[166].veinsmobility co2emission ETV
vector 1086 RSUExampleScenario.node[167].veinsmobility acceleration ETV
vector 1087 RSUExampleScenario.node[167].veinsmobility co2emission ETV
vector 1088 RSUExampleScenario.node[168].veinsmobility acceleration ETV
vector 1089 RSUExampleScenario.node[168].veinsmobility co2emission ETV
vector 1090 RSUExampleScenario.node[169].veinsmobility acceleration ETV
vector 1091 RSUExampleScenario.node[169].veinsmobility co2emission ETV
vector 1092 RSUExampleScenario.node[170].veinsmobility acceleration ETV
vector 1093 RSUExampleScenario.node[170].veinsmobility co2emission ETV
vector 1094 RSUExampleScenario.node[171].veinsmobility acceleration ETV
vector 1095 RSUExampleScenario.node[171].veinsmobility co2emission ETV
vector 1096 RSUExampleScenario.node[172].veinsmobility acceleration ETV
vector 1097 RSUExampleScenario.node[172].veinsmobility co2emission ETV
vector 1098 RSUExampleScenario.node[173].veinsmobility acceleration ETV
vector 1099 RSUExampleScenario.node[173].veinsmobility co2emission ETV
vector 1100 RSUExampleScenario.node[174].veinsmobility acceleration ETV
vector 1101 RSUExampleScenario.node[174].veinsmobility co2emission ETV
vector 1102 RSUExampleScenario.node[175].veinsmobility acceleration ETV
vector 1103 RSUExampleScenario.node[175].veinsmobility co2emission ETV
vector 1104 RSUExampleScenario.node[176].veinsmobility acceleration ETV
vector 1105 RSUExampleScenario.node[176].veinsmobility co2emission ETV
vector 1106 RSUExampleScenario.node[177].veinsmobility acceleration ETV
vector 1107 RSUExampleScenario.node[177].veinsmobility co2emission ETV
vector 1108 RSUExampleScenario.node[178].veinsmobility acceleration ETV
vector 1109 RSUExampleScenario.node[178].veinsmobility co2emission ETV
vector 1110 RSUExampleScenario.node[179].veinsmobility acceleration ETV
vector 1111 RSUExampleScenario.node[179].veinsmobility co2emission ETV
vector 1112 RSUExampleScenario.node[180].veinsmobility acceleration ETV
vector 1113 RSUExampleScenario.node[180].veinsmobility co2emission ETV
vector 1114 RSUExampleScenario.node[181].veinsmobility acceleration ETV
vector 1115 RSUExampleScenario.node[181].veinsmobility co2emission ETV
vector 1116 RSUExampleScenario.node[182].veinsmobility acceleration ETV
vector 1117 RSUExampleScenario.node[182].veinsmobility co2emission ETV
vector 1118 RSUExampleScenario.node[183].veinsmobility acceleration ETV
vector 1119 RSUExampleScenario.node[183].veinsmobility co2emission ETV
vector 1120 RSUExampleScenario.node[184].veinsmobility acceleration ETV
vector 1121 RSUExampleScenario.node[184].veinsmobility co2emission ETV
vector 1122 RSUExampleScenario.node[185].veinsmobility acceleration ETV
vector 1123 RSUExampleScenario.node[185].veinsmobility co2emission ETV
vector 1124 RSUExampleScenario.node[186].veinsmobility acceleration ETV
vector 1125 RSUExampleScenario.node[186].veinsmobility co2emission ETV
vector 1126 RSUExampleScenario.node[187].veinsmobility acceleration ETV
vector 1127 RSUExampleScenario.node[187].veinsmobility co2emission ETV
vector 1128 RSUExampleScenario.node[188].veinsmobility acceleration ETV
vector 1129 RSUExampleScenario.node[188].veinsmobility co2emission ETV
vector 1130 RSUExampleScenario.node[189].veinsmobility acceleration ETV
vector 1131 RSUExampleScenario.node[189].veinsmobility co2emission ETV
vector 1132 RSUExampleScenario.node[190].veinsmobility acceleration ETV
vector 1133 RSUExampleScenario.node[190].veinsmobility co2emission ETV
vector 1134 RSUExampleScenario.node[191].veinsmobility acceleration ETV
vector 1135 RSUExampleScenario.node[191].veinsmobility co2emission ETV
vector 1136 RSUExampleScenario.node[192].veinsmobility acceleration ETV
vector 1137 RSUExampleScenario.node[192].veinsmobility co2emission ETV
vector 1138 RSUExampleScenario.node[193].veinsmobility acceleration ETV
vector 1139 RSUExampleScenario.node[193].veinsmobility co2emission ETV
vector 1140 RSUExampleScenario.node[194].veinsmobility acceleration ETV
vector 1141 RSUExampleScenario.node[194].veinsmobility co2emission ETV
vector 1142 RSUExampleScenario.node[195].veinsmobility acceleration ETV
vector 1143 RSUExampleScenario.node[195].veinsmobility co2emission ETV
vector 1144 RSUExampleScenario.node[196].veinsmobility acceleration ETV
vector 1145 RSUExampleScenario.node[196].veinsmobility co2emission ETV
vector 1146 RSUExampleScenario.node[197].veinsmobility acceleration ETV
vector 1147 RSUExampleScenario.node[197].veinsmobility co2emission ETV
vector 1148 RSUExampleScenario.node[198].veinsmobility acceleration ETV
vector 1149 RSUExampleScenario.node[198].veinsmobility co2emission ETV
vector 1150 RSUExampleScenario.node[199].veinsmobility acceleration ETV
vector 1151 RSUExampleScenario.node[199].veinsmobility co2emission ETV
vector 1152 RSUExampleScenario.node[200].veinsmobility acceleration ETV
vector 1153 RSUExampleScenario.node[200].veinsmobility co2emission ETV
vector 1154 RSUExampleScenario.node[201].veinsmobility acceleration ETV
vector 1155 RSUExampleScenario.node[201].veinsmobility co2emission ETV
vector 1156 RSUExampleScenario.node[202].veinsmobility acceleration ETV
vector 1157 RSUExampleScenario.node[202].veinsmobility co2emission ETV
vector 1158 RSUExampleScenario.node[203].veinsmobility acceleration ETV
vector 1159 RSUExampleScenario.node[203].veinsmobility co2emission ETV
vector 1160 RSUExampleScenario.node[204].veinsmobility acceleration ETV
vector 1161 RSUExampleScenario.node[204].veinsmobility co2emission ETV
vector 1162 RSUExampleScenario.node[205].veinsmobility acceleration ETV
vector 1163 RSUExampleScenario.node[205].veinsmobility co2emission ETV
vector 1164 RSUExampleScenario.node[206].veinsmobility acceleration ETV
vector 1165 RSUExampleScenario.node[206].veinsmobility co2emission ETV
vector 1166 RSUExampleScenario.node[207].veinsmobility acceleration ETV
vector 1167 RSUExampleScenario.node[207].veinsmobility co2emission ETV
vector 1168 RSUExampleScenario.node[208].veinsmobility acceleration ETV
vector 1169 RSUExampleScenario.node[208].veinsmobility co2emission ETV
vector 1170 RSUExampleScenario.node[209].veinsmobility acceleration ETV
vector 1171 RSUExampleScenario.node[209].veinsmobility co2emission ETV
vector 1172 RSUExampleScenario.node[210].veinsmobility acceleration ETV
vector 1173 RSUExampleScenario.node[210].veinsmobility co2emission ETV
vector 1174 RSUExampleScenario.node[211].veinsmobility acceleration ETV
vector 1175 RSUExampleScenario.node[211].veinsmobility co2emission ETV
vector 1176 RSUExampleScenario.node[212].veinsmobility speed ETV
vector 1177 RSUExampleScenario.node[213].veinsmobility speed ETV
vector 1178 RSUExampleScenario.node[214].veinsmobility speed ETV
vector 1179 RSUExampleScenario.node[215].veinsmobility speed ETV
vector 1180 RSUExampleScenario.node[216].veinsmobility speed ETV
vector 1181 RSUExampleScenario.node[217].veinsmobility speed ETV
vector 1182 RSUExampleScenario.node[218].veinsmobility speed ETV
vector 1183 RSUExampleScenario.node[219].veinsmobility speed ETV
vector 1184 RSUExampleScenario.node[220].veinsmobility speed ETV
vector 1185 RSUExampleScenario.node[221].veinsmobility speed ETV
vector 1186 RSUExampleScenario.node[222].veinsmobility speed ETV
vector 1187 RSUExampleScenario.node[223].veinsmobility speed ETV
vector 1188 RSUExampleScenario.node[224].veinsmobility speed ETV
[...]
983	21509015 10030 426731 505823476 6 454 449 0 13.714295001584 520.37398545477 5445.7535717114
648	21519045 11381 218416 505823476 5 454 450 210.15 426.65 106805.77265424 26243678.388239
647	21530426 14972 218416 505823476 5 454 450 23.35 233.25 28468.282503174 2210686.5406455
1940	21545398 11973 4194797 505823476 12 454 443 0.973 9.2043432146727 627.83595224043 1686.162146794
1939	21557371 11542 4194797 505823476 12 454 443 -4.5 2.5936951455544 11.84797959656 401.38462460451
1862	21568913 11342 3287559 505823476 11 454 444 0 13.867509353836 689.40618119674 6858.4067075578
1580	21580255 12907 2447907 505823476 10 454 445 139.85 339.85 126271.40831439 36874877.330814
1579	21593162 13960 2447907 505823476 10 454 445 39.85 426.65 158071.97690126 61472021.353631
1839	21607122 11629 3287559 505823476 11 454 444 0.973 10.275552633114 620.90990692357 1722.7667449898
1838	21618751 10725 3287559 505823476 11 454 444 -4.5 2.597305377014 11.371345751546 382.3422155348
1724	21629476 10664 2447907 505823476 10 454 445 0 13.828995049908 650.12665594154 6642.8786363403
1441	21640140 11734 1753442 505823476 9 454 446 110.15 336.55 69522.926567007 13228401.573456
1440	21651874 14894 1753442 505823476 9 454 446 23.35 401.27665594154 33727.932872015 3732837.2796898
3414	21666768 11134 53487979 505834186 37 455 419 0.973 9.4503028712857 566.37866808174 1400.2883638032
3413	21677902 10579 53487979 505834186 37 455 419 -4.5 2.5511060347548 12.025218459847 329.10417432172
3395	21688481 10472 50931172 505834186 36 455 420 0 13.731709955679 486.30943500384 4253.9118938219
3332	21698953 11526 48271317 505834186 35 455 421 223.35 410.15 100485.11990833 24609232.877578
3331	21710479 14084 48271317 505834186 35 455 421 23.35 139.85 35410.64116292 3158609.9871361
3833	21724563 11142 108136547 505834186 56 455 400 0.973 8.8953522553401 569.37703618369 1462.386651369
3832	21735705 11225 108136547 505834186 56 455 400 -4.3151999899303 2.548285176116 11.146254694345 401.08564136733
3825	21746930 10953 105182519 505834186 55 455 401 0 13.402833753242 505.30208632807 4035.7327122873
3796	21757883 11366 102025508 505834186 54 455 402 120.05 213.45 81925.358099062 16845051.500044
3795	21769249 13107 102025508 505834186 54 455 402 44.197913671935 410.15 130324.52824543 45627800.385596
1147	21782356 11852 771351 505834186 7 455 449 0.973 7.9811219003728 592.38095356063 1371.8537064323
1146	21794208 11310 771351 505834186 7 455 449 -4.5 2.5942060350673 6.7557939878852 326.5250977325
991	21805518 10690 426731 505834186 6 455 450 0 13.706437516864 520.6019091312 4650.9088923597
664	21816208 11631 218416 505834186 5 455 451 223.35 336.55 109834.42921858 27372887.336543
663	21827839 14800 218416 505834186 5 455 451 23.35 201.95 43244.601768516 4480735.430372
1117	21842639 11713 771351 505844609 7 456 450 0.973 10.178699942837 606.25573211543 1659.7786532967
1116	21854352 10786 771351 505844609 7 456 450 -4.5 2.5897506665671 11.020217582351 361.12008534993
976	21865138 10223 426731 505844609 6 456 451 0 13.808902415331 491.91692199752 4918.5753167363
634	21875361 11287 218416 505844609 5 456 452 152.11307800248 310.15 107798.72484356 25914218.092885
633	21886648 15070 218416 505844609 5 456 452 39.85 329.95 44270.403590845 5180880.6587155
1346	21901718 12136 1196530 505852057 8 457 450 0.973 10.002737101574 635.04214564713 1651.5741880514
1345	21913854 11803 1196530 505852057 8 457 450 -4.5 2.5492100276751 11.407467905292 434.88151924106
1195	21925657 11654 771351 505852057 7 457 451 0 13.891470362642 626.08716839406 5360.9399871018
849	21937311 13005 426731 505852057 6 457 452 120.05 339.85 117259.86169288 31617028.00495
848	21950316 13453 426731 505852057 6 457 452 16.75 326.65 122221.9112042 35551961.280614
732	21963769 11242 218416 505852057 5 457 453 0.973 9.3351422229635 592.94592965325 1454.3697612926
731	21975011 10086 218416 505852057 5 457 453 -4.5 2.5997241539415 12.019241374219 272.62402215235
551	21985097 10024 87623 505852057 4 457 454 0 13.867407356482 550.2625757608 5987.2383119838
193	21995121 11385 20055 505852057 3 457 455 210.15 329.95 106998.79013874 25643673.931847
192	22006506 15184 20055 505852057 3 457 455 23.35 329.95 28578.488934492 2937476.4679429
1799	22021690 11661 3287559 505852057 11 457 447 0.973 8.9910439406259 584.11323147848 1307.4783603397
1798	22033351 10831 3287559 505852057 11 457 447 -4.5 2.5786312262178 11.473609496863 338.11989329238
1704	22044182 10736 2447907 505852057 10 457 448 0 13.830868000654 485.02680255251 4134.0969516777
1401	22054918 14658 1753442 505852057 9 457 449 10.15 310.15 56544.055384259 9019978.1412243
1400	22069576 12135 1753442 505852057 9 457 449 23.35 110.15 16218.324560391 834789.25315947
1616	22081711 11962 2447907 505852057 10 457 448 0.973 9.6571023377921 606.78661958 1441.7108025733
1615	22093673 11505 2447907 505852057 10 457 448 -4.5 2.5907039772952 8.7015536338335 429.07406211675
1503	22105178 11354 1753442 505852057 9 457 449 0 13.783043932356 514.87344495817 4157.6028643161
1220	22116532 12167 1196530 505852057 8 457 450 223.35 336.55 109628.80905588 27306746.622215
1219	22128699 15167 1196530 505852057 8 457 450 23.35 201.95 45820.324075301 4971054.4404559
702	22143866 11574 218416 505865087 5 459 455 0.973 8.8274873093 620.71487614733 1523.9134127287
701	22155440 11000 218416 505865087 5 459 455 -4.5 2.5825925481273 11.350497502484 417.00307414742
536	22166440 10840 87623 505865087 4 459 456 0 13.48321969281 540.48408615338 4117.0977513272
163	22177280 12627 20055 505865087 3 459 457 116.75 229.95 61977.726935574 8769693.038237
162	22189907 14627 20055 505865087 3 459 457 23.35 239.85 62506.210100715 10640241.574494
919	22204534 11656 426731 505870382 6 460 455 0.973 9.2156124018813 588.92018802936 1278.6276093262
918	22216190 10932 426731 505870382 6 460 455 -4.5 2.4877099251607 11.847566161025 331.54461674756
796	22227122 10813 218416 505870382 5 460 456 0 13.765445398097 451.30277160048 3951.8323552354
357	22237935 12559 87623 505870382 4 460 457 123.35 333.25 64175.983151716 9691124.1341512
356	22250494 14554 87623 505870382 4 460 457 23.35 139.85 41222.333548417 4129542.54545
3758	22265048 10755 96250694 505870382 52 460 409 0.973 9.0217115076057 528.60133087562 1238.2976792868
3757	22275803 9767 96250694 505870382 52 460 409 -4.5 2.5342348564882 11.255420586304 255.78970468404
3742	22285570 9725 93231440 505870382 51 460 410 0 13.514877465763 379.47885187584 3738.2918235046
3712	22295295 10871 90286415 505870382 50 460 411 236.55 405.55885187584 99748.057031586 24443886.837712
3711	22306166 14140 90286415 505870382 50 460 411 39.85 213.45 32837.186515271 2873480.0176114
2256	22320306 11771 7611937 505875326 15 461 447 0.973 10.296899910379 571.19671471801 1264.1721249622
2255	22332077 11007 7611937 505875326 15 461 447 -4.5 2.6 10.725478142197 286.00625560054
2200	22343084 10917 6353283 505875326 14 461 448 0 13.740420547505 441.16821839528 3760.6419809529
2014	22354001 15310 5235386 505875326 13 461 449 123.35 333.25 71109.793317005 11693682.475312
2013	22369311 11853 5235386 505875326 13 461 449 23.35 139.85 49211.113249614 5989341.3629643
2907	22381164 11655 22875732 505880454 24 462 439 0.973 9.5139641899499 548.84010585362 1172.5824689967
2906	22392819 10943 22875732 505880454 24 462 439 -4.3619055682461 2.4521021240391 10.545293678646 228.33874621511
2861	22403762 10781 20943130 505880454 23 462 440 0 13.818257343769 425.53496079949 4109.7032207655
2779	22414543 11470 18940443 505880454 22 462 441 236.55 310.15 108416.29609288 26904718.821318
2778	22426013 15161 18940443 505880454 22 462 441 39.85 210.15 28960.650793313 2199838.4651693
1493	22441174 11924 1753442 505888691 9 464 456 0.973 10.219948055257 618.02709700252 1646.6509774499
1492	22453098 10949 1753442 505888691 9 464 456 -4.5 2.5908996325685 11.97217004979 286.91125496494
1395	22464047 10873 1196530 505888691 8 464 457 0 13.744277201616 659.21645568482 7206.1248674246
1051	22474920 11951 771351 505888691 7 464 458 210.15 333.25 107299.39005955 25600316.163131
1050	22486871 15745 771351 505888691 7 464 458 23.35 436.55 40561.063360273 5835295.9230531
2274	22502616 11770 7611937 505888691 15 464 450 0.973 9.8813317080636 566.4516130622 1184.4759171476
2273	22514386 10815 7611937 505888691 15 464 450 -4.5 2.5806299875025 11.441132932273 299.78297127701
2209	22525201 10701 6353283 505888691 14 464 451 0 13.766132229194 447.28959294047 4216.4479640378
2032	22535902 11968 5235386 505888691 13 464 452 44.490407059533 229.84862059821 61892.143993273 9236623.49731
2031	22547870 15405 5235386 505888691 13 464 452 23.35 126.65 28917.400890709 2001534.5406005
2617	22563275 11896 13566460 505896285 19 466 448 0.973 9.5083602199305 652.43754723428 1889.0389581578
2616	22575171 11309 13566460 505896285 19 466 448 -4.3966475831112 2.4914417296415 12.316927849338 425.58048505721
2551	22586480 11180 11951943 505896285 18 466 449 0 13.878753478453 694.62373583733 6812.8973429926
2424	22597660 14503 10368771 505896285 17 466 450 10.15 310.15 76961.193600702 14370928.880393
2423	22612163 12437 10368771 505896285 17 466 450 16.75 310.15 21710.829505945 2623184.5952058
1843	22624600 12444 3287559 505902334 11 468 458 0.973 7.8099445827318 577.85352053341 1146.3455734198
1842	22637044 12390 3287559 505902334 11 468 458 -4.5 2.5787748228293 11.433794186614 294.26040806535
1726	22649434 12053 2447907 505902334 10 468 459 0 13.791190793831 426.93404820047 3561.8989836067
1445	22661487 12627 1753442 505902334 9 468 460 220.05 310.15 104400.83685552 23826279.352277
1444	22674114 15394 1753442 505902334 9 468 460 43.555951799533 339.85 112814.52914216 29793745.413427
4019	22689508 3417 496472781 505902334 351 468 118 0.973 9.3867665977364 242.68536175675 969.45501568391
4018	22692925 3567 496472781 505902334 351 468 118 -4.5 2.5861000166042 12.056854648397 227.97094422408
4017	22696492 3550 496246405 505902334 350 468 119 0 13.603537462559 450.73346744174 4525.2258726131
4016	22700042 3308 496022844 505902334 349 468 120 147.95 229.95 26679.596798658 5979529.268355
4015	22703350 4053 496022844 505902334 349 468 120 23.35 329.95 12908.794938844 2208767.9139462
2186	22707403 11867 6353283 505902334 14 468 455 0.973 9.5359611034316 585.96934719597 1348.7710490293
2185	22719270 10887 6353283 505902334 14 468 455 -4.5 2.5268441897351 10.942393564573 299.12191479918
2115	22730157 10830 5235386 505902334 13 468 456 0 13.654888619645 452.36751709441 3873.0695066106
1900	22740987 12014 4194797 505902334 12 468 457 110.15 229.95 65228.50998096 10030804.442312
1899	22753001 15658 4194797 505902334 12 468 457 23.35 229.95 33641.200806637 2851963.5665162
421	22768659 11708 87623 505904877 4 469 466 0.973 8.3955966209548 615.57489634861 1429.8864184407
420	22780367 10858 87623 505904877 4 469 466 -4.5 2.4942195232958 11.581496905209 331.97828568611
258	22791225 10749 20055 505904877 3 469 467 0 13.794901784533 543.50952108161 4494.0525701027
41	22801974 11937 26 505904877 2 469 468 123.35 229.95 65703.494217749 9761616.988707
40	22813911 14591 26 505904877 2 469 468 23.35 226.65 37776.702529916 3558909.7621625
3866	22828502 10847 117204206 505904877 59 469 411 0.973 10.111979350749 539.16169813296 1371.2093157664
3865	22839349 9919 117204206 505904877 59 469 411 -4.5 2.5821938712616 12.113071855437 240.24085631547
3857	22849268 9834 114099756 505904877 58 469 412 0 13.870734900865 460.38690560076 4702.4338271099
3841	22859102 10811 111149281 505904877 57 469 413 236.55 310.15 98627.855638602 23605162.227805
3840	22869913 14282 111149281 505904877 57 469 413 39.85 310.15 33323.53739436 3717621.6666067
2341	22884195 12185 8947317 505907459 16 470 455 0.973 8.0813939111266 600.07502832563 1353.5197133143
2340	22896380 11777 8947317 505907459 16 470 455 -4.5 2.5971283074934 11.416248449404 407.66810792784
2280	22908157 11528 7611937 505907459 15 470 456 0 13.686936233635 446.8404358745 3829.0221259416
2126	22919685 11870 6353283 505907459 14 470 457 210.15 329.95 101212.4940351 22533569.952848
2125	22931555 15783 6353283 505907459 14 470 457 123.35 401.95 111219.71900689 29698235.208574
3762	22947338 11257 96250694 505907459 52 470 419 0.973 8.7274989775428 609.16329919649 1761.4320611817
3761	22958595 10715 96250694 505907459 52 470 419 -4.5 2.5415474575711 11.714116493682 383.90700027009
3744	22969310 10576 93231440 505907459 51 470 420 0 13.873972052336 668.41213411762 6820.0463181241
3716	22979886 12490 90286415 505907459 50 470 421 233.25 403.45 114710.44136871 32287522.173449
3715	22992376 12901 90286415 505907459 50 470 421 39.85 410.15 36772.725595691 5682734.3441144
2534	23005277 11843 11951943 505909237 18 471 454 0.973 8.5106553824764 583.03024462767 1286.4617174565
2533	23017120 10847 11951943 505909237 18 471 454 -4.5 2.5520268464461 10.721333660698 338.27650211625
2472	23027967 10807 10368771 505909237 17 471 455 0 13.822480107658 522.58112609498 5439.8708621009
2333	23038774 14296 8947317 505909237 16 471 456 36.55 229.95 91424.388832294 19037783.144318
2332	23053070 12771 8947317 505909237 16 471 456 10.15 296.77112609498 22165.634400986 2065938.0534116
734	23065841 11858 218416 505911115 5 472 468 0.973 9.6054836949776 642.08374910197 1632.9662273169
733	23077699 11111 218416 505911115 5 472 468 -4.5 2.5073334065964 12.443010369665 368.0934353359
552	23088810 10963 87623 505911115 4 472 469 0 13.851270526112 626.01044866319 5777.9429846778
195	23099773 12816 20055 505911115 3 472 470 123.35 436.55 70458.742775028 12365140.56158
194	23112589 15044 20055 505911115 3 472 470 23.35 195.21044866319 39759.272119205 3778971.6454246
1324	23127633 12133 1196530 505912142 8 473 466 0.973 10.078012962835 631.8568267214 1717.0599499725
1323	23139766 11184 1196530 505912142 8 473 466 -4.5 2.586640196899 11.889398645633 369.31426035671
1184	23150950 11117 771351 505912142 7 473 467 0 13.814715804439 541.95332182327 5227.4441213467
827	23162067 11853 426731 505912142 6 473 468 110.15 229.95 67666.266731819 10581769.597441
826	23173920 15254 426731 505912142 6 473 468 23.35 226.65 27828.566522404 2242720.1086617
2532	23189174 12195 11951943 505912142 18 473 456 0.973 10.349614372186 633.3644669496 1663.5826602521
2531	23201369 11620 11951943 505912142 18 473 456 -4.5 2.5940453544492 11.689416157594 377.50721361206
2471	23212989 11562 10368771 505912142 17 473 457 0 13.711696841754 645.02114082873 5707.7142956087
2331	23224551 14895 8947317 505912142 16 473 458 10.15 229.95 42077.241692328 6690816.5312156
2330	23239446 12722 8947317 505912142 16 473 458 23.35 326.65 21425.24255748 2508937.9676924
2609	23252168 12416 13566460 505912142 19 473 455 0.973 9.8000919972896 639.14945645282 1637.5801271725
2608	23264584 12360 13566460 505912142 19 473 455 -4.5 2.562535620993 11.16067106031 446.8038057982
2547	23276944 12065 11951943 505912142 18 473 456 0 13.840360066062 582.98602443861 4938.8756013392
2416	23289009 11947 10368771 505912142 17 473 457 139.85 329.95 100215.9818357 22176967.607475
2415	23300956 15697 10368771 505912142 17 473 457 123.35 410.15 122055.93047754 36039493.53419
2952	23316653 11978 24982735 505915587 25 477 453 0.973 9.3861712257197 625.16973730745 1671.4800487601
2951	23328631 11170 24982735 505915587 25 477 453 -4.5 2.517364025698 10.63885435469 311.62380467029
2912	23339801 11051 22875732 505915587 24 477 454 0 13.886915054102 651.67086572373 6947.9768302455
2821	23350852 11989 20943130 505915587 23 477 455 236.55 413.45 112720.152473 28450107.408319
2820	23362841 15469 20943130 505915587 23 477 455 39.85 413.45 48731.900972728 7266295.6938212
2096	23378310 12327 5235386 505915587 13 477 465 0.973 10.026672358363 662.17734617441 1887.7670720764
2095	23390637 11596 5235386 505915587 13 477 465 -4.5 2.5888712569373 10.602763410565 412.6533876915
1995	23402233 11466 4194797 505915587 12 477 466 0 13.88229298892 686.70764627434 7074.1104659658
1789	23413699 12192 3287559 505915587 11 477 467 116.75 310.15 111040.83519974 26856773.403866
1788	23425891 16074 3287559 505915587 11 477 467 39.85 426.65 49714.445590292 8038572.3217572
1360	23441965 12361 1196530 505916723 8 479 472 0.973 8.9680656154173 622.4172970123 1558.5061407169
1359	23454326 11433 1196530 505916723 8 479 472 -4.5 2.5878721041372 10.643984180735 282.02036161737
1202	23465759 11320 771351 505916723 7 479 473 0 13.811920845509 614.88014979358 6647.206480858
863	23477079 11896 426731 505916723 6 479 474 210.15 329.95 110388.06262924 26089728.77549
862	23488975 15829 426731 505916723 6 479 474 23.35 395.83014979358 36323.155634597 3928634.5721398
2712	23504804 12534 17127123 505917068 21 480 460 0.973 7.5491518417065 604.40758720967 1307.7475681493
2711	23517338 12352 17127123 505917068 21 480 460 -4.5 2.5127025567461 10.867902581184 347.55537280628
2683	23529690 12105 15303369 505917068 20 480 461 0 13.856101016328 554.1617893119 5152.1921397901
2553	23541795 12031 13566460 505917068 19 480 462 210.15 310.15 102490.0045722 22823077.856086
2552	23553826 15863 13566460 505917068 19 480 462 39.85 401.95 119718.21043231 34246049.843505
3633	23569689 11503 78587082 505917068 46 480 435 0.973 9.962393673385 558.7659365701 1253.6886764565
3632	23581192 10690 78587082 505917068 46 480 435 -4.5 2.4104848226998 10.131745998468 172.9671187128
3618	23591882 10572 75609063 505917068 45 480 436 0 13.875997976866 720.31956494166 8527.8112049032
3577	23602454 11608 72717629 505917068 44 480 437 236.55 436.55 111051.28117453 29411877.519872
3576	23614062 14968 72717629 505917068 44 480 437 39.85 436.55 43109.945795975 6059212.4385204
1841	23629030 12757 3287559 505917808 11 483 473 0.973 10.019376513425 649.46630051626 1589.4740280936
1840	23641787 12421 3287559 505917808 11 483 473 -4.5 2.5837578403763 12.048809550307 444.8653794032
1725	23654208 12171 2447907 505917808 10 483 474 0 13.619840569794 648.50776222321 6189.8277366499
1443	23666379 12648 1753442 505917808 9 483 475 220.05 433.25 109698.71256373 25942676.734858
1442	23679027 16070 1753442 505917808 9 483 475 120.05 439.85 157793.50205845 56885334.229998
1469	23695097 12500 1753442 505918004 9 484 476 0.973 9.687566516908 656.90991496343 1772.6987499597
1468	23707597 11669 1753442 505918004 9 484 476 -4.5 2.5695543190464 10.542721829866 353.55257993161
1383	23719266 11551 1196530 505918004 8 484 477 0 13.796650461596 692.05998274962 7025.0842852731
1027	23730817 12532 771351 505918004 7 484 478 110.15 310.15 72497.740818123 12208344.866259
1026	23743349 16373 771351 505918004 7 484 478 23.35 410.15 36448.791868781 5203626.3838171
2524	23759722 12642 11951943 505918004 18 484 467 0.973 9.4334061921829 686.77308077445 1967.1240946584
2523	23772364 12375 11951943 505918004 18 484 467 -4.5 2.5569124788744 11.350079861213 522.01289174029
2467	23784739 12136 10368771 505918004 17 484 468 0 13.839883427951 698.21053732339 6164.41230252
2323	23796875 13676 8947317 505918004 16 484 469 220.05 339.85 118101.55351052 30415881.350972
2322	23810551 14494 8947317 505918004 16 484 469 39.85 430.96019064715 166735.18706861 64136903.754885
2371	23825045 12786 8947317 505918243 16 487 472 0.973 9.9763398581494 646.49784358391 1613.751178119
2370	23837831 12553 8947317 505918243 16 487 472 -4.5 2.5136374257971 11.821526721516 408.88020962717
2295	23850384 12330 7611937 505918243 15 487 473 0 13.873103632708 660.19333674614 6192.0484205848
2156	23862714 13598 6353283 505918243 14 487 474 220.05 310.15 112610.38993472 27023063.845895
2155	23876312 14893 6353283 505918243 14 487 474 39.85 439.85 165048.71106499 62854060.733431
2968	23891205 12555 24982735 505918312 25 490 466 0.973 9.4042037468905 690.82304134389 1985.2918881001
2967	23903760 12075 24982735 505918312 25 490 466 -4.5 2.5377299786545 11.369751759013 421.84402570149
2920	23915835 11946 22875732 505918312 24 490 467 0 13.824164734641 837.63244853047 8159.4560204025
2837	23927781 15208 20943130 505918312 23 490 468 10.15 233.25 42328.131206956 7041454.5655
2836	23942989 15894 20943130 505918312 23 490 468 23.35 426.65 28451.994108126 5719388.8867825

